REMARK  4 active torsions:
REMARK  status: ('A' for Active; 'I' for Inactive)
REMARK    1  A    between atoms: C_6  and  C_7 
REMARK    2  A    between atoms: CA_11  and  C_12 
REMARK    3  A    between atoms: C_17  and  C_18 
REMARK    4  A    between atoms: C_20  and  C_21 
ROOT
ATOM      1  N   UNL d   1      -2.132  -3.001  -1.244  0.00  0.00    -0.096 N 
ATOM      2  C   UNL d   1      -0.931  -2.476  -1.141  0.00  0.00     0.020 C 
ATOM      3  C   UNL d   1       0.328  -1.915  -1.044  0.00  0.00     0.042 A 
ATOM      4  C   UNL d   1       1.458  -2.527  -1.723  0.00  0.00     0.023 A 
ATOM      5  C   UNL d   1       2.632  -1.865  -1.529  0.00  0.00     0.014 A 
ATOM      6  C   UNL d   1       2.876  -0.754  -0.837  0.00  0.00    -0.025 A 
ATOM      7  C   UNL d   1       1.725  -0.168  -0.191  0.00  0.00     0.026 A 
ATOM      8  C   UNL d   1       0.533  -0.796  -0.340  0.00  0.00    -0.004 A 
ENDROOT
BRANCH   8   9
ATOM      9  C   UNL d   1      -0.634  -0.375   0.486  0.00  0.00    -0.003 A 
ATOM     10  C   UNL d   1      -1.770   0.037  -0.038  0.00  0.00     0.023 A 
ATOM     11  C   UNL d   1      -2.951   0.217   0.638  0.00  0.00    -0.029 A 
ATOM     12  C   UNL d   1      -2.844  -0.105   2.009  0.00  0.00     0.039 A 
ATOM     13  C   UNL d   1      -4.071  -0.150   2.795  0.00  0.00     0.020 C 
ATOM     14  C   UNL d   1      -1.670  -0.540   2.629  0.00  0.00     0.045 A 
ATOM     15  N   UNL d   1      -5.088  -0.175   3.464  0.00  0.00    -0.096 N 
ATOM     16  C   UNL d   1      -0.556  -0.672   1.842  0.00  0.00     0.057 A 
ATOM     17  C   UNL d   1       0.758  -1.144   2.288  0.00  0.00     0.100 C 
ATOM     18  N   UNL d   1       1.773  -1.516   2.640  0.00  0.00    -0.191 NA
BRANCH  11  19
ATOM     19  C   UNL d   1      -4.270   0.541   0.110  0.00  0.00     0.080 C 
ATOM     20  C   UNL d   1      -4.510   0.094  -1.328  0.00  0.00     0.180 C 
ATOM     21  O   UNL d   1      -5.477   0.899  -1.898  0.00  0.00    -0.388 OA
ATOM     22  C   UNL d   1      -5.735   1.970  -1.050  0.00  0.00     0.205 C 
ATOM     23  C   UNL d   1      -4.691   1.960   0.050  0.00  0.00     0.204 C 
ATOM     24  F   UNL d   1      -5.274   2.386   1.269  0.00  0.00    -0.246 F 
ENDBRANCH  11  19
ENDBRANCH   8   9
BRANCH   6  25
ATOM     25  C   UNL d   1       4.155  -0.238  -0.451  0.00  0.00    -0.022 A 
ATOM     26  C   UNL d   1       5.118  -1.166  -0.019  0.00  0.00     0.031 A 
ATOM     27  C   UNL d   1       6.314  -0.758   0.478  0.00  0.00     0.118 A 
ATOM     28  N   UNL d   1       6.653   0.540   0.563  0.00  0.00    -0.254 NA
ATOM     29  CA  UNL d   1       5.750   1.482   0.118  0.00  0.00     0.133 A 
ATOM     30  C   UNL d   1       4.550   1.053  -0.353  0.00  0.00     0.051 A 
BRANCH  29  31
ATOM     31  C   UNL d   1       6.060   2.880   0.177  0.00  0.00     0.229 C 
ATOM     32  O   UNL d   1       7.272   3.130   0.710  0.00  0.00    -0.643 OA
ATOM     33  OXT UNL d   1       5.418   3.966  -0.176  0.00  0.00    -0.643 OA
ENDBRANCH  29  31
ENDBRANCH   6  25
TORSDOF 4
