MODEL 1
REMARK VINA RESULT:      -7.4      0.000      0.000
REMARK  4 active torsions:
REMARK  status: ('A' for Active; 'I' for Inactive)
REMARK    1  A    between atoms: C_6  and  C_7 
REMARK    2  A    between atoms: CA_11  and  C_12 
REMARK    3  A    between atoms: C_17  and  C_18 
REMARK    4  A    between atoms: C_20  and  C_21 
ROOT
ATOM      1  N   UNL d   1      21.250 -41.947  54.189  0.00  0.00    -0.096 N 
ATOM      2  C   UNL d   1      21.134 -43.216  53.863  0.00  0.00     0.020 C 
ATOM      3  C   UNL d   1      21.016 -44.553  53.535  0.00  0.00     0.042 A 
ATOM      4  C   UNL d   1      22.132 -45.261  52.930  0.00  0.00     0.023 A 
ATOM      5  C   UNL d   1      21.863 -46.568  52.658  0.00  0.00     0.014 A 
ATOM      6  C   UNL d   1      20.755 -47.271  52.882  0.00  0.00    -0.025 A 
ATOM      7  C   UNL d   1      19.675 -46.536  53.498  0.00  0.00     0.026 A 
ATOM      8  C   UNL d   1      19.886 -45.226  53.777  0.00  0.00    -0.004 A 
ENDROOT
BRANCH   8   9
ATOM      9  C   UNL d   1      18.743 -44.365  54.194  0.00  0.00    -0.003 A 
ATOM     10  C   UNL d   1      17.954 -43.756  53.333  0.00  0.00     0.023 A 
ATOM     11  C   UNL d   1      16.760 -43.146  53.625  0.00  0.00    -0.029 A 
ATOM     12  C   UNL d   1      16.425 -43.240  54.994  0.00  0.00     0.039 A 
ATOM     13  C   UNL d   1      15.092 -42.811  55.399  0.00  0.00     0.020 C 
ATOM     14  C   UNL d   1      17.218 -43.864  55.960  0.00  0.00     0.045 A 
ATOM     15  N   UNL d   1      13.987 -42.440  55.751  0.00  0.00    -0.096 N 
ATOM     16  C   UNL d   1      18.393 -44.430  55.538  0.00  0.00     0.057 A 
ATOM     17  C   UNL d   1      19.346 -45.158  56.381  0.00  0.00     0.100 C 
ATOM     18  N   UNL d   1      20.077 -45.726  57.040  0.00  0.00    -0.191 NA
BRANCH  11  19
ATOM     19  C   UNL d   1      15.777 -42.571  52.716  0.00  0.00     0.080 C 
ATOM     20  C   UNL d   1      14.642 -43.511  52.325  0.00  0.00     0.180 C 
ATOM     21  O   UNL d   1      14.131 -43.123  51.102  0.00  0.00    -0.388 OA
ATOM     22  C   UNL d   1      14.964 -42.158  50.547  0.00  0.00     0.205 C 
ATOM     23  C   UNL d   1      16.223 -42.083  51.390  0.00  0.00     0.204 C 
ATOM     24  F   UNL d   1      16.681 -40.744  51.451  0.00  0.00    -0.246 F 
ENDBRANCH  11  19
ENDBRANCH   8   9
BRANCH   6  25
ATOM     25  C   UNL d   1      20.427 -48.561  52.354  0.00  0.00    -0.022 A 
ATOM     26  C   UNL d   1      19.113 -48.751  51.893  0.00  0.00     0.031 A 
ATOM     27  C   UNL d   1      18.680 -49.973  51.488  0.00  0.00     0.118 A 
ATOM     28  N   UNL d   1      19.479 -51.054  51.482  0.00  0.00    -0.254 NA
ATOM     29  CA  UNL d   1      20.786 -50.903  51.894  0.00  0.00     0.133 A 
ATOM     30  C   UNL d   1      21.191 -49.678  52.318  0.00  0.00     0.051 A 
BRANCH  29  31
ATOM     31  C   UNL d   1      21.686 -52.019  51.901  0.00  0.00     0.229 C 
ATOM     32  O   UNL d   1      21.978 -52.453  53.143  0.00  0.00    -0.643 OA
ATOM     33  OXT UNL d   1      22.284 -52.706  50.960  0.00  0.00    -0.643 OA
ENDBRANCH  29  31
ENDBRANCH   6  25
TORSDOF 4
ENDMDL
MODEL 2
REMARK VINA RESULT:      -7.3      2.109      2.358
REMARK  4 active torsions:
REMARK  status: ('A' for Active; 'I' for Inactive)
REMARK    1  A    between atoms: C_6  and  C_7 
REMARK    2  A    between atoms: CA_11  and  C_12 
REMARK    3  A    between atoms: C_17  and  C_18 
REMARK    4  A    between atoms: C_20  and  C_21 
ROOT
ATOM      1  N   UNL d   1      18.893 -40.944  53.148  0.00  0.00    -0.096 N 
ATOM      2  C   UNL d   1      19.078 -42.224  52.910  0.00  0.00     0.020 C 
ATOM      3  C   UNL d   1      19.284 -43.569  52.668  0.00  0.00     0.042 A 
ATOM      4  C   UNL d   1      20.004 -43.999  51.481  0.00  0.00     0.023 A 
ATOM      5  C   UNL d   1      20.122 -45.351  51.377  0.00  0.00     0.014 A 
ATOM      6  C   UNL d   1      19.697 -46.306  52.201  0.00  0.00    -0.025 A 
ATOM      7  C   UNL d   1      19.001 -45.838  53.376  0.00  0.00     0.026 A 
ATOM      8  C   UNL d   1      18.843 -44.500  53.522  0.00  0.00    -0.004 A 
ENDROOT
BRANCH   8   9
ATOM      9  C   UNL d   1      17.939 -43.972  54.583  0.00  0.00    -0.003 A 
ATOM     10  C   UNL d   1      16.637 -43.852  54.419  0.00  0.00     0.023 A 
ATOM     11  C   UNL d   1      15.721 -43.599  55.410  0.00  0.00    -0.029 A 
ATOM     12  C   UNL d   1      16.319 -43.485  56.684  0.00  0.00     0.039 A 
ATOM     13  C   UNL d   1      15.439 -43.417  57.845  0.00  0.00     0.020 C 
ATOM     14  C   UNL d   1      17.691 -43.594  56.925  0.00  0.00     0.045 A 
ATOM     15  N   UNL d   1      14.713 -43.344  58.819  0.00  0.00    -0.096 N 
ATOM     16  C   UNL d   1      18.500 -43.841  55.848  0.00  0.00     0.057 A 
ATOM     17  C   UNL d   1      19.954 -44.023  55.891  0.00  0.00     0.100 C 
ATOM     18  N   UNL d   1      21.081 -44.168  55.933  0.00  0.00    -0.191 NA
BRANCH  11  19
ATOM     19  C   UNL d   1      14.266 -43.583  55.330  0.00  0.00     0.080 C 
ATOM     20  C   UNL d   1      13.642 -44.857  54.772  0.00  0.00     0.180 C 
ATOM     21  O   UNL d   1      12.413 -44.556  54.218  0.00  0.00    -0.388 OA
ATOM     22  C   UNL d   1      12.267 -43.174  54.159  0.00  0.00     0.205 C 
ATOM     23  C   UNL d   1      13.603 -42.546  54.505  0.00  0.00     0.204 C 
ATOM     24  F   UNL d   1      13.396 -41.349  55.235  0.00  0.00    -0.246 F 
ENDBRANCH  11  19
ENDBRANCH   8   9
BRANCH   6  25
ATOM     25  C   UNL d   1      19.618 -47.711  51.930  0.00  0.00    -0.022 A 
ATOM     26  C   UNL d   1      18.336 -48.258  51.745  0.00  0.00     0.031 A 
ATOM     27  C   UNL d   1      18.157 -49.596  51.604  0.00  0.00     0.118 A 
ATOM     28  N   UNL d   1      19.184 -50.464  51.608  0.00  0.00    -0.254 NA
ATOM     29  CA  UNL d   1      20.461 -49.965  51.753  0.00  0.00     0.133 A 
ATOM     30  C   UNL d   1      20.615 -48.625  51.917  0.00  0.00     0.051 A 
BRANCH  29  31
ATOM     31  C   UNL d   1      21.595 -50.842  51.758  0.00  0.00     0.229 C 
ATOM     32  O   UNL d   1      22.342 -50.734  52.874  0.00  0.00    -0.643 OA
ATOM     33  OXT UNL d   1      22.060 -51.726  50.910  0.00  0.00    -0.643 OA
ENDBRANCH  29  31
ENDBRANCH   6  25
TORSDOF 4
ENDMDL
MODEL 3
REMARK VINA RESULT:      -7.3      1.104      1.284
REMARK  4 active torsions:
REMARK  status: ('A' for Active; 'I' for Inactive)
REMARK    1  A    between atoms: C_6  and  C_7 
REMARK    2  A    between atoms: CA_11  and  C_12 
REMARK    3  A    between atoms: C_17  and  C_18 
REMARK    4  A    between atoms: C_20  and  C_21 
ROOT
ATOM      1  N   UNL d   1      22.597 -42.905  54.232  0.00  0.00    -0.096 N 
ATOM      2  C   UNL d   1      22.334 -44.154  53.918  0.00  0.00     0.020 C 
ATOM      3  C   UNL d   1      22.062 -45.471  53.603  0.00  0.00     0.042 A 
ATOM      4  C   UNL d   1      23.084 -46.306  52.994  0.00  0.00     0.023 A 
ATOM      5  C   UNL d   1      22.666 -47.576  52.736  0.00  0.00     0.014 A 
ATOM      6  C   UNL d   1      21.487 -48.147  52.975  0.00  0.00    -0.025 A 
ATOM      7  C   UNL d   1      20.505 -47.289  53.595  0.00  0.00     0.026 A 
ATOM      8  C   UNL d   1      20.865 -46.010  53.860  0.00  0.00    -0.004 A 
ENDROOT
BRANCH   8   9
ATOM      9  C   UNL d   1      19.831 -45.022  54.280  0.00  0.00    -0.003 A 
ATOM     10  C   UNL d   1      19.057 -44.388  53.422  0.00  0.00     0.023 A 
ATOM     11  C   UNL d   1      17.943 -43.650  53.735  0.00  0.00    -0.029 A 
ATOM     12  C   UNL d   1      17.674 -43.637  55.122  0.00  0.00     0.039 A 
ATOM     13  C   UNL d   1      16.411 -43.060  55.564  0.00  0.00     0.020 C 
ATOM     14  C   UNL d   1      18.457 -44.281  56.084  0.00  0.00     0.045 A 
ATOM     15  N   UNL d   1      15.366 -42.566  55.946  0.00  0.00    -0.096 N 
ATOM     16  C   UNL d   1      19.549 -44.980  55.640  0.00  0.00     0.057 A 
ATOM     17  C   UNL d   1      20.473 -45.748  56.479  0.00  0.00     0.100 C 
ATOM     18  N   UNL d   1      21.183 -46.347  57.135  0.00  0.00    -0.191 NA
BRANCH  11  19
ATOM     19  C   UNL d   1      16.970 -43.035  52.842  0.00  0.00     0.080 C 
ATOM     20  C   UNL d   1      16.191 -44.015  51.972  0.00  0.00     0.180 C 
ATOM     21  O   UNL d   1      15.760 -43.367  50.831  0.00  0.00    -0.388 OA
ATOM     22  C   UNL d   1      16.370 -42.120  50.759  0.00  0.00     0.205 C 
ATOM     23  C   UNL d   1      17.440 -42.057  51.832  0.00  0.00     0.204 C 
ATOM     24  F   UNL d   1      17.510 -40.746  52.365  0.00  0.00    -0.246 F 
ENDBRANCH  11  19
ENDBRANCH   8   9
BRANCH   6  25
ATOM     25  C   UNL d   1      21.010 -49.396  52.461  0.00  0.00    -0.022 A 
ATOM     26  C   UNL d   1      19.725 -49.407  51.891  0.00  0.00     0.031 A 
ATOM     27  C   UNL d   1      19.145 -50.566  51.488  0.00  0.00     0.118 A 
ATOM     28  N   UNL d   1      19.767 -51.754  51.587  0.00  0.00    -0.254 NA
ATOM     29  CA  UNL d   1      21.042 -51.783  52.108  0.00  0.00     0.133 A 
ATOM     30  C   UNL d   1      21.594 -50.615  52.528  0.00  0.00     0.051 A 
BRANCH  29  31
ATOM     31  C   UNL d   1      21.756 -53.020  52.230  0.00  0.00     0.229 C 
ATOM     32  O   UNL d   1      21.203 -53.863  53.124  0.00  0.00    -0.643 OA
ATOM     33  OXT UNL d   1      22.831 -53.505  51.660  0.00  0.00    -0.643 OA
ENDBRANCH  29  31
ENDBRANCH   6  25
TORSDOF 4
ENDMDL
MODEL 4
REMARK VINA RESULT:      -7.2      2.528      3.691
REMARK  4 active torsions:
REMARK  status: ('A' for Active; 'I' for Inactive)
REMARK    1  A    between atoms: C_6  and  C_7 
REMARK    2  A    between atoms: CA_11  and  C_12 
REMARK    3  A    between atoms: C_17  and  C_18 
REMARK    4  A    between atoms: C_20  and  C_21 
ROOT
ATOM      1  N   UNL d   1      18.533 -41.149  53.860  0.00  0.00    -0.096 N 
ATOM      2  C   UNL d   1      19.107 -42.325  53.730  0.00  0.00     0.020 C 
ATOM      3  C   UNL d   1      19.706 -43.564  53.608  0.00  0.00     0.042 A 
ATOM      4  C   UNL d   1      21.139 -43.709  53.804  0.00  0.00     0.023 A 
ATOM      5  C   UNL d   1      21.583 -44.986  53.644  0.00  0.00     0.014 A 
ATOM      6  C   UNL d   1      20.901 -46.093  53.360  0.00  0.00    -0.025 A 
ATOM      7  C   UNL d   1      19.478 -45.911  53.189  0.00  0.00     0.026 A 
ATOM      8  C   UNL d   1      18.985 -44.655  53.322  0.00  0.00    -0.004 A 
ENDROOT
BRANCH   8   9
ATOM      9  C   UNL d   1      17.576 -44.367  52.931  0.00  0.00    -0.003 A 
ATOM     10  C   UNL d   1      16.590 -44.306  53.802  0.00  0.00     0.023 A 
ATOM     11  C   UNL d   1      15.328 -43.825  53.557  0.00  0.00    -0.029 A 
ATOM     12  C   UNL d   1      15.171 -43.366  52.231  0.00  0.00     0.039 A 
ATOM     13  C   UNL d   1      13.946 -42.648  51.899  0.00  0.00     0.020 C 
ATOM     14  C   UNL d   1      16.172 -43.408  51.257  0.00  0.00     0.045 A 
ATOM     15  N   UNL d   1      12.920 -42.061  51.608  0.00  0.00    -0.096 N 
ATOM     16  C   UNL d   1      17.388 -43.919  51.628  0.00  0.00     0.057 A 
ATOM     17  C   UNL d   1      18.574 -44.020  50.772  0.00  0.00     0.100 C 
ATOM     18  N   UNL d   1      19.491 -44.090  50.103  0.00  0.00    -0.191 NA
BRANCH  11  19
ATOM     19  C   UNL d   1      14.233 -43.606  54.493  0.00  0.00     0.080 C 
ATOM     20  C   UNL d   1      14.526 -42.592  55.594  0.00  0.00     0.180 C 
ATOM     21  O   UNL d   1      13.729 -42.866  56.688  0.00  0.00    -0.388 OA
ATOM     22  C   UNL d   1      13.102 -44.092  56.498  0.00  0.00     0.205 C 
ATOM     23  C   UNL d   1      13.719 -44.751  55.280  0.00  0.00     0.204 C 
ATOM     24  F   UNL d   1      12.728 -45.472  54.570  0.00  0.00    -0.246 F 
ENDBRANCH  11  19
ENDBRANCH   8   9
BRANCH   6  25
ATOM     25  C   UNL d   1      21.434 -47.358  52.953  0.00  0.00    -0.022 A 
ATOM     26  C   UNL d   1      22.828 -47.447  52.797  0.00  0.00     0.031 A 
ATOM     27  C   UNL d   1      23.410 -48.569  52.300  0.00  0.00     0.118 A 
ATOM     28  N   UNL d   1      22.698 -49.657  51.956  0.00  0.00    -0.254 NA
ATOM     29  CA  UNL d   1      21.330 -49.624  52.126  0.00  0.00     0.133 A 
ATOM     30  C   UNL d   1      20.767 -48.482  52.602  0.00  0.00     0.051 A 
BRANCH  29  31
ATOM     31  C   UNL d   1      20.522 -50.756  51.784  0.00  0.00     0.229 C 
ATOM     32  O   UNL d   1      19.228 -50.439  51.582  0.00  0.00    -0.643 OA
ATOM     33  OXT UNL d   1      20.771 -52.032  51.624  0.00  0.00    -0.643 OA
ENDBRANCH  29  31
ENDBRANCH   6  25
TORSDOF 4
ENDMDL
MODEL 5
REMARK VINA RESULT:      -7.2      6.656     10.488
REMARK  4 active torsions:
REMARK  status: ('A' for Active; 'I' for Inactive)
REMARK    1  A    between atoms: C_6  and  C_7 
REMARK    2  A    between atoms: CA_11  and  C_12 
REMARK    3  A    between atoms: C_17  and  C_18 
REMARK    4  A    between atoms: C_20  and  C_21 
ROOT
ATOM      1  N   UNL d   1      28.010 -52.501  55.128  0.00  0.00    -0.096 N 
ATOM      2  C   UNL d   1      26.907 -51.989  54.629  0.00  0.00     0.020 C 
ATOM      3  C   UNL d   1      25.742 -51.450  54.117  0.00  0.00     0.042 A 
ATOM      4  C   UNL d   1      24.722 -52.315  53.548  0.00  0.00     0.023 A 
ATOM      5  C   UNL d   1      23.636 -51.640  53.080  0.00  0.00     0.014 A 
ATOM      6  C   UNL d   1      23.380 -50.333  53.089  0.00  0.00    -0.025 A 
ATOM      7  C   UNL d   1      24.410 -49.510  53.677  0.00  0.00     0.026 A 
ATOM      8  C   UNL d   1      25.520 -50.131  54.146  0.00  0.00    -0.004 A 
ENDROOT
BRANCH   8   9
ATOM      9  C   UNL d   1      26.707 -49.323  54.547  0.00  0.00    -0.003 A 
ATOM     10  C   UNL d   1      27.764 -49.174  53.775  0.00  0.00     0.023 A 
ATOM     11  C   UNL d   1      28.781 -48.272  53.968  0.00  0.00    -0.029 A 
ATOM     12  C   UNL d   1      28.584 -47.470  55.114  0.00  0.00     0.039 A 
ATOM     13  C   UNL d   1      29.485 -46.343  55.318  0.00  0.00     0.020 C 
ATOM     14  C   UNL d   1      27.491 -47.582  55.977  0.00  0.00     0.045 A 
ATOM     15  N   UNL d   1      30.242 -45.408  55.507  0.00  0.00    -0.096 N 
ATOM     16  C   UNL d   1      26.546 -48.528  55.675  0.00  0.00     0.057 A 
ATOM     17  C   UNL d   1      25.315 -48.780  56.429  0.00  0.00     0.100 C 
ATOM     18  N   UNL d   1      24.359 -48.967  57.016  0.00  0.00    -0.191 NA
BRANCH  11  19
ATOM     19  C   UNL d   1      29.907 -47.959  53.097  0.00  0.00     0.080 C 
ATOM     20  C   UNL d   1      29.561 -47.868  51.615  0.00  0.00     0.180 C 
ATOM     21  O   UNL d   1      30.691 -48.139  50.868  0.00  0.00    -0.388 OA
ATOM     22  C   UNL d   1      31.688 -48.618  51.709  0.00  0.00     0.205 C 
ATOM     23  C   UNL d   1      31.071 -48.875  53.070  0.00  0.00     0.204 C 
ATOM     24  F   UNL d   1      32.006 -48.564  54.088  0.00  0.00    -0.246 F 
ENDBRANCH  11  19
ENDBRANCH   8   9
BRANCH   6  25
ATOM     25  C   UNL d   1      22.352 -49.648  52.365  0.00  0.00    -0.022 A 
ATOM     26  C   UNL d   1      22.682 -48.400  51.808  0.00  0.00     0.031 A 
ATOM     27  C   UNL d   1      21.741 -47.627  51.209  0.00  0.00     0.118 A 
ATOM     28  N   UNL d   1      20.458 -48.014  51.093  0.00  0.00    -0.254 NA
ATOM     29  CA  UNL d   1      20.100 -49.246  51.596  0.00  0.00     0.133 A 
ATOM     30  C   UNL d   1      21.052 -49.993  52.213  0.00  0.00     0.051 A 
BRANCH  29  31
ATOM     31  C   UNL d   1      18.749 -49.715  51.495  0.00  0.00     0.229 C 
ATOM     32  O   UNL d   1      18.665 -51.042  51.280  0.00  0.00    -0.643 OA
ATOM     33  OXT UNL d   1      17.579 -49.129  51.566  0.00  0.00    -0.643 OA
ENDBRANCH  29  31
ENDBRANCH   6  25
TORSDOF 4
ENDMDL
MODEL 6
REMARK VINA RESULT:      -7.1      7.024     11.489
REMARK  4 active torsions:
REMARK  status: ('A' for Active; 'I' for Inactive)
REMARK    1  A    between atoms: C_6  and  C_7 
REMARK    2  A    between atoms: CA_11  and  C_12 
REMARK    3  A    between atoms: C_17  and  C_18 
REMARK    4  A    between atoms: C_20  and  C_21 
ROOT
ATOM      1  N   UNL d   1      28.262 -55.148  53.792  0.00  0.00    -0.096 N 
ATOM      2  C   UNL d   1      27.148 -54.497  53.544  0.00  0.00     0.020 C 
ATOM      3  C   UNL d   1      25.970 -53.818  53.295  0.00  0.00     0.042 A 
ATOM      4  C   UNL d   1      24.994 -54.360  52.364  0.00  0.00     0.023 A 
ATOM      5  C   UNL d   1      23.890 -53.577  52.218  0.00  0.00     0.014 A 
ATOM      6  C   UNL d   1      23.582 -52.424  52.809  0.00  0.00    -0.025 A 
ATOM      7  C   UNL d   1      24.569 -51.928  53.738  0.00  0.00     0.026 A 
ATOM      8  C   UNL d   1      25.696 -52.663  53.910  0.00  0.00    -0.004 A 
ENDROOT
BRANCH   8   9
ATOM      9  C   UNL d   1      26.843 -52.091  54.670  0.00  0.00    -0.003 A 
ATOM     10  C   UNL d   1      27.799 -51.387  54.101  0.00  0.00     0.023 A 
ATOM     11  C   UNL d   1      28.749 -50.642  54.753  0.00  0.00    -0.029 A 
ATOM     12  C   UNL d   1      28.601 -50.685  56.157  0.00  0.00     0.039 A 
ATOM     13  C   UNL d   1      29.418 -49.780  56.956  0.00  0.00     0.020 C 
ATOM     14  C   UNL d   1      27.615 -51.416  56.825  0.00  0.00     0.045 A 
ATOM     15  N   UNL d   1      30.107 -49.039  57.633  0.00  0.00    -0.096 N 
ATOM     16  C   UNL d   1      26.730 -52.125  56.056  0.00  0.00     0.057 A 
ATOM     17  C   UNL d   1      25.608 -52.925  56.556  0.00  0.00     0.100 C 
ATOM     18  N   UNL d   1      24.737 -53.538  56.951  0.00  0.00    -0.191 NA
BRANCH  11  19
ATOM     19  C   UNL d   1      29.749 -49.740  54.196  0.00  0.00     0.080 C 
ATOM     20  C   UNL d   1      29.182 -48.500  53.513  0.00  0.00     0.180 C 
ATOM     21  O   UNL d   1      30.086 -48.046  52.573  0.00  0.00    -0.388 OA
ATOM     22  C   UNL d   1      31.092 -48.993  52.415  0.00  0.00     0.205 C 
ATOM     23  C   UNL d   1      30.677 -50.247  53.159  0.00  0.00     0.204 C 
ATOM     24  F   UNL d   1      31.816 -50.865  53.731  0.00  0.00    -0.246 F 
ENDBRANCH  11  19
ENDBRANCH   8   9
BRANCH   6  25
ATOM     25  C   UNL d   1      22.539 -51.514  52.441  0.00  0.00    -0.022 A 
ATOM     26  C   UNL d   1      21.277 -52.065  52.155  0.00  0.00     0.031 A 
ATOM     27  C   UNL d   1      20.264 -51.293  51.684  0.00  0.00     0.118 A 
ATOM     28  N   UNL d   1      20.399 -49.970  51.486  0.00  0.00    -0.254 NA
ATOM     29  CA  UNL d   1      21.611 -49.385  51.786  0.00  0.00     0.133 A 
ATOM     30  C   UNL d   1      22.618 -50.179  52.234  0.00  0.00     0.051 A 
BRANCH  29  31
ATOM     31  C   UNL d   1      21.810 -47.977  51.603  0.00  0.00     0.229 C 
ATOM     32  O   UNL d   1      22.763 -47.469  52.409  0.00  0.00    -0.643 OA
ATOM     33  OXT UNL d   1      21.264 -47.079  50.821  0.00  0.00    -0.643 OA
ENDBRANCH  29  31
ENDBRANCH   6  25
TORSDOF 4
ENDMDL
MODEL 7
REMARK VINA RESULT:      -7.0      2.716      3.763
REMARK  4 active torsions:
REMARK  status: ('A' for Active; 'I' for Inactive)
REMARK    1  A    between atoms: C_6  and  C_7 
REMARK    2  A    between atoms: CA_11  and  C_12 
REMARK    3  A    between atoms: C_17  and  C_18 
REMARK    4  A    between atoms: C_20  and  C_21 
ROOT
ATOM      1  N   UNL d   1      17.188 -40.743  52.334  0.00  0.00    -0.096 N 
ATOM      2  C   UNL d   1      17.813 -41.893  52.216  0.00  0.00     0.020 C 
ATOM      3  C   UNL d   1      18.484 -43.095  52.094  0.00  0.00     0.042 A 
ATOM      4  C   UNL d   1      18.812 -43.621  50.779  0.00  0.00     0.023 A 
ATOM      5  C   UNL d   1      19.466 -44.815  50.820  0.00  0.00     0.014 A 
ATOM      6  C   UNL d   1      19.853 -45.537  51.870  0.00  0.00    -0.025 A 
ATOM      7  C   UNL d   1      19.522 -44.972  53.158  0.00  0.00     0.026 A 
ATOM      8  C   UNL d   1      18.857 -43.791  53.174  0.00  0.00    -0.004 A 
ENDROOT
BRANCH   8   9
ATOM      9  C   UNL d   1      18.288 -43.279  54.453  0.00  0.00    -0.003 A 
ATOM     10  C   UNL d   1      17.097 -43.626  54.896  0.00  0.00     0.023 A 
ATOM     11  C   UNL d   1      16.604 -43.387  56.154  0.00  0.00    -0.029 A 
ATOM     12  C   UNL d   1      17.533 -42.717  56.981  0.00  0.00     0.039 A 
ATOM     13  C   UNL d   1      17.211 -42.583  58.396  0.00  0.00     0.020 C 
ATOM     14  C   UNL d   1      18.807 -42.315  56.573  0.00  0.00     0.045 A 
ATOM     15  N   UNL d   1      16.944 -42.452  59.577  0.00  0.00    -0.096 N 
ATOM     16  C   UNL d   1      19.176 -42.608  55.286  0.00  0.00     0.057 A 
ATOM     17  C   UNL d   1      20.475 -42.306  54.677  0.00  0.00     0.100 C 
ATOM     18  N   UNL d   1      21.486 -42.073  54.212  0.00  0.00    -0.191 NA
BRANCH  11  19
ATOM     19  C   UNL d   1      15.360 -43.849  56.755  0.00  0.00     0.080 C 
ATOM     20  C   UNL d   1      14.921 -45.244  56.322  0.00  0.00     0.180 C 
ATOM     21  O   UNL d   1      13.550 -45.351  56.458  0.00  0.00    -0.388 OA
ATOM     22  C   UNL d   1      13.020 -44.095  56.726  0.00  0.00     0.205 C 
ATOM     23  C   UNL d   1      14.120 -43.069  56.530  0.00  0.00     0.204 C 
ATOM     24  F   UNL d   1      13.979 -42.026  57.478  0.00  0.00    -0.246 F 
ENDBRANCH  11  19
ENDBRANCH   8   9
BRANCH   6  25
ATOM     25  C   UNL d   1      20.306 -46.895  51.867  0.00  0.00    -0.022 A 
ATOM     26  C   UNL d   1      21.695 -47.108  51.834  0.00  0.00     0.031 A 
ATOM     27  C   UNL d   1      22.212 -48.357  51.709  0.00  0.00     0.118 A 
ATOM     28  N   UNL d   1      21.436 -49.453  51.634  0.00  0.00    -0.254 NA
ATOM     29  CA  UNL d   1      20.068 -49.291  51.697  0.00  0.00     0.133 A 
ATOM     30  C   UNL d   1      19.572 -48.030  51.799  0.00  0.00     0.051 A 
BRANCH  29  31
ATOM     31  C   UNL d   1      19.192 -50.423  51.630  0.00  0.00     0.229 C 
ATOM     32  O   UNL d   1      17.889 -50.082  51.618  0.00  0.00    -0.643 OA
ATOM     33  OXT UNL d   1      19.387 -51.718  51.579  0.00  0.00    -0.643 OA
ENDBRANCH  29  31
ENDBRANCH   6  25
TORSDOF 4
ENDMDL
MODEL 8
REMARK VINA RESULT:      -7.0      5.283      8.386
REMARK  4 active torsions:
REMARK  status: ('A' for Active; 'I' for Inactive)
REMARK    1  A    between atoms: C_6  and  C_7 
REMARK    2  A    between atoms: CA_11  and  C_12 
REMARK    3  A    between atoms: C_17  and  C_18 
REMARK    4  A    between atoms: C_20  and  C_21 
ROOT
ATOM      1  N   UNL d   1      26.953 -49.122  54.200  0.00  0.00    -0.096 N 
ATOM      2  C   UNL d   1      25.728 -48.771  53.876  0.00  0.00     0.020 C 
ATOM      3  C   UNL d   1      24.436 -48.409  53.547  0.00  0.00     0.042 A 
ATOM      4  C   UNL d   1      23.651 -49.231  52.642  0.00  0.00     0.023 A 
ATOM      5  C   UNL d   1      22.401 -48.743  52.409  0.00  0.00     0.014 A 
ATOM      6  C   UNL d   1      21.810 -47.656  52.899  0.00  0.00    -0.025 A 
ATOM      7  C   UNL d   1      22.616 -46.875  53.808  0.00  0.00     0.026 A 
ATOM      8  C   UNL d   1      23.875 -47.309  54.063  0.00  0.00    -0.004 A 
ENDROOT
BRANCH   8   9
ATOM      9  C   UNL d   1      24.826 -46.430  54.800  0.00  0.00    -0.003 A 
ATOM     10  C   UNL d   1      25.587 -45.537  54.200  0.00  0.00     0.023 A 
ATOM     11  C   UNL d   1      26.306 -44.545  54.819  0.00  0.00    -0.029 A 
ATOM     12  C   UNL d   1      26.143 -44.554  56.222  0.00  0.00     0.039 A 
ATOM     13  C   UNL d   1      26.690 -43.433  56.977  0.00  0.00     0.020 C 
ATOM     14  C   UNL d   1      25.359 -45.475  56.920  0.00  0.00     0.045 A 
ATOM     15  N   UNL d   1      27.157 -42.510  57.619  0.00  0.00    -0.096 N 
ATOM     16  C   UNL d   1      24.696 -46.422  56.184  0.00  0.00     0.057 A 
ATOM     17  C   UNL d   1      23.800 -47.451  56.718  0.00  0.00     0.100 C 
ATOM     18  N   UNL d   1      23.103 -48.244  57.139  0.00  0.00    -0.191 NA
BRANCH  11  19
ATOM     19  C   UNL d   1      27.059 -43.449  54.222  0.00  0.00     0.080 C 
ATOM     20  C   UNL d   1      26.419 -42.836  52.981  0.00  0.00     0.180 C 
ATOM     21  O   UNL d   1      27.403 -42.260  52.201  0.00  0.00    -0.388 OA
ATOM     22  C   UNL d   1      28.649 -42.629  52.695  0.00  0.00     0.205 C 
ATOM     23  C   UNL d   1      28.439 -43.702  53.746  0.00  0.00     0.204 C 
ATOM     24  F   UNL d   1      29.388 -43.547  54.786  0.00  0.00    -0.246 F 
ENDBRANCH  11  19
ENDBRANCH   8   9
BRANCH   6  25
ATOM     25  C   UNL d   1      20.599 -47.046  52.437  0.00  0.00    -0.022 A 
ATOM     26  C   UNL d   1      19.464 -47.869  52.333  0.00  0.00     0.031 A 
ATOM     27  C   UNL d   1      18.308 -47.407  51.792  0.00  0.00     0.118 A 
ATOM     28  N   UNL d   1      18.174 -46.144  51.351  0.00  0.00    -0.254 NA
ATOM     29  CA  UNL d   1      19.253 -45.294  51.466  0.00  0.00     0.133 A 
ATOM     30  C   UNL d   1      20.407 -45.783  51.988  0.00  0.00     0.051 A 
BRANCH  29  31
ATOM     31  C   UNL d   1      19.166 -43.934  51.020  0.00  0.00     0.229 C 
ATOM     32  O   UNL d   1      19.704 -43.744  49.799  0.00  0.00    -0.643 OA
ATOM     33  OXT UNL d   1      18.675 -42.839  51.544  0.00  0.00    -0.643 OA
ENDBRANCH  29  31
ENDBRANCH   6  25
TORSDOF 4
ENDMDL
MODEL 9
REMARK VINA RESULT:      -7.0      4.601      8.428
REMARK  4 active torsions:
REMARK  status: ('A' for Active; 'I' for Inactive)
REMARK    1  A    between atoms: C_6  and  C_7 
REMARK    2  A    between atoms: CA_11  and  C_12 
REMARK    3  A    between atoms: C_17  and  C_18 
REMARK    4  A    between atoms: C_20  and  C_21 
ROOT
ATOM      1  N   UNL d   1      23.551 -47.941  52.871  0.00  0.00    -0.096 N 
ATOM      2  C   UNL d   1      22.580 -47.064  52.741  0.00  0.00     0.020 C 
ATOM      3  C   UNL d   1      21.552 -46.150  52.614  0.00  0.00     0.042 A 
ATOM      4  C   UNL d   1      20.525 -46.336  51.602  0.00  0.00     0.023 A 
ATOM      5  C   UNL d   1      19.585 -45.351  51.595  0.00  0.00     0.014 A 
ATOM      6  C   UNL d   1      19.469 -44.282  52.380  0.00  0.00    -0.025 A 
ATOM      7  C   UNL d   1      20.499 -44.142  53.383  0.00  0.00     0.026 A 
ATOM      8  C   UNL d   1      21.469 -45.088  53.423  0.00  0.00    -0.004 A 
ENDROOT
BRANCH   8   9
ATOM      9  C   UNL d   1      22.675 -44.875  54.273  0.00  0.00    -0.003 A 
ATOM     10  C   UNL d   1      23.746 -44.235  53.848  0.00  0.00     0.023 A 
ATOM     11  C   UNL d   1      24.788 -43.801  54.629  0.00  0.00    -0.029 A 
ATOM     12  C   UNL d   1      24.601 -44.101  55.997  0.00  0.00     0.039 A 
ATOM     13  C   UNL d   1      25.533 -43.520  56.954  0.00  0.00     0.020 C 
ATOM     14  C   UNL d   1      23.494 -44.782  56.512  0.00  0.00     0.045 A 
ATOM     15  N   UNL d   1      26.316 -43.052  57.761  0.00  0.00    -0.096 N 
ATOM     16  C   UNL d   1      22.525 -45.168  55.624  0.00  0.00     0.057 A 
ATOM     17  C   UNL d   1      21.278 -45.859  55.962  0.00  0.00     0.100 C 
ATOM     18  N   UNL d   1      20.310 -46.390  56.233  0.00  0.00    -0.191 NA
BRANCH  11  19
ATOM     19  C   UNL d   1      25.933 -42.980  54.257  0.00  0.00     0.080 C 
ATOM     20  C   UNL d   1      25.581 -41.683  53.536  0.00  0.00     0.180 C 
ATOM     21  O   UNL d   1      26.653 -41.293  52.757  0.00  0.00    -0.388 OA
ATOM     22  C   UNL d   1      27.588 -42.321  52.721  0.00  0.00     0.205 C 
ATOM     23  C   UNL d   1      26.961 -43.548  53.355  0.00  0.00     0.204 C 
ATOM     24  F   UNL d   1      27.944 -44.274  54.071  0.00  0.00    -0.246 F 
ENDBRANCH  11  19
ENDBRANCH   8   9
BRANCH   6  25
ATOM     25  C   UNL d   1      18.619 -43.147  52.177  0.00  0.00    -0.022 A 
ATOM     26  C   UNL d   1      18.997 -41.943  52.795  0.00  0.00     0.031 A 
ATOM     27  C   UNL d   1      18.192 -40.850  52.757  0.00  0.00     0.118 A 
ATOM     28  N   UNL d   1      17.011 -40.849  52.114  0.00  0.00    -0.254 NA
ATOM     29  CA  UNL d   1      16.618 -42.000  51.465  0.00  0.00     0.133 A 
ATOM     30  C   UNL d   1      17.428 -43.089  51.537  0.00  0.00     0.051 A 
BRANCH  29  31
ATOM     31  C   UNL d   1      15.373 -42.054  50.757  0.00  0.00     0.229 C 
ATOM     32  O   UNL d   1      14.380 -42.613  51.477  0.00  0.00    -0.643 OA
ATOM     33  OXT UNL d   1      14.994 -41.677  49.561  0.00  0.00    -0.643 OA
ENDBRANCH  29  31
ENDBRANCH   6  25
TORSDOF 4
ENDMDL
