MODEL 1
REMARK VINA RESULT:     -10.0      0.000      0.000
REMARK  6 active torsions:
REMARK  status: ('A' for Active; 'I' for Inactive)
REMARK    1  A    between atoms: C_4  and  C_5 
REMARK    2  A    between atoms: C_11  and  C_12 
REMARK    3  A    between atoms: C_12  and  C_13 
REMARK    4  A    between atoms: C_13  and  C_14 
REMARK    5  A    between atoms: C_18  and  C_19 
REMARK       I    between atoms: C_19  and  N_20 
REMARK    6  A    between atoms: C_27  and  C_28 
ROOT
ATOM      1  C   UNL d   1      -2.648 -29.827 -13.316  0.00  0.00     0.013 A 
ATOM      2  C   UNL d   1      -3.672 -29.819 -14.255  0.00  0.00     0.017 A 
ATOM      3  C   UNL d   1      -3.369 -30.095 -15.573  0.00  0.00     0.024 A 
ATOM      4  C   UNL d   1      -2.073 -30.374 -15.946  0.00  0.00     0.054 A 
ATOM      5  C   UNL d   1      -1.772 -30.661 -17.331  0.00  0.00     0.100 C 
ATOM      6  N   UNL d   1      -1.536 -30.876 -18.441  0.00  0.00    -0.191 NA
ATOM      7  C   UNL d   1      -1.029 -30.391 -15.040  0.00  0.00     0.002 A 
ATOM      8  C   UNL d   1      -1.364 -30.111 -13.727  0.00  0.00     0.135 A 
ATOM      9  F   UNL d   1      -0.381 -30.115 -12.802  0.00  0.00    -0.205 F 
ENDROOT
BRANCH   7  10
ATOM     10  C   UNL d   1       0.361 -30.697 -15.465  0.00  0.00     0.048 C 
BRANCH  10  11
ATOM     11  C   UNL d   1       0.647 -32.185 -15.392  0.00  0.00     0.043 C 
BRANCH  11  12
ATOM     12  C   UNL d   1       2.023 -32.424 -14.882  0.00  0.00    -0.057 A 
ATOM     13  C   UNL d   1       2.510 -33.711 -14.736  0.00  0.00     0.007 A 
ATOM     14  C   UNL d   1       3.767 -33.991 -14.273  0.00  0.00     0.002 A 
ATOM     15  C   UNL d   1       4.609 -32.958 -13.930  0.00  0.00     0.017 A 
ATOM     16  C   UNL d   1       4.153 -31.659 -14.065  0.00  0.00     0.032 A 
ATOM     17  C   UNL d   1       2.869 -31.398 -14.538  0.00  0.00     0.024 A 
BRANCH  16  18
ATOM     18  C   UNL d   1       5.037 -30.576 -13.704  0.00  0.00     0.249 C 
ATOM     19  N   UNL d   1       5.287 -29.550 -14.644  0.00  0.00    -0.366 N 
ATOM     20  H   UNL d   1       4.860 -29.580 -15.531  0.00  0.00     0.159 HD
ATOM     21  H   UNL d   1       5.888 -28.805 -14.412  0.00  0.00     0.159 HD
ATOM     22  O   UNL d   1       5.576 -30.537 -12.586  0.00  0.00    -0.268 OA
ENDBRANCH  16  18
ENDBRANCH  11  12
ENDBRANCH  10  11
ENDBRANCH   7  10
BRANCH   1  23
ATOM     23  C   UNL d   1      -2.992 -29.534 -11.935  0.00  0.00    -0.022 A 
ATOM     24  C   UNL d   1      -4.214 -29.044 -11.575  0.00  0.00     0.019 A 
ATOM     25  C   UNL d   1      -4.520 -28.774 -10.253  0.00  0.00    -0.054 A 
ATOM     26  C   UNL d   1      -5.866 -28.237  -9.893  0.00  0.00     0.049 C 
ATOM     27  C   UNL d   1      -3.589 -28.994  -9.249  0.00  0.00    -0.048 A 
ATOM     28  C   UNL d   1      -2.361 -29.487  -9.615  0.00  0.00     0.009 A 
ATOM     29  C   UNL d   1      -2.055 -29.759 -10.952  0.00  0.00     0.013 A 
BRANCH  27  30
ATOM     30  C   UNL d   1      -3.978 -28.685  -7.851  0.00  0.00     0.019 A 
ATOM     31  C   UNL d   1      -3.361 -27.384  -7.276  0.00  0.00     0.010 A 
ATOM     32  C   UNL d   1      -3.017 -28.719  -6.740  0.00  0.00     0.010 A 
ENDBRANCH  27  30
ENDBRANCH   1  23
TORSDOF 6
ENDMDL
MODEL 2
REMARK VINA RESULT:      -9.8      3.121      5.940
REMARK  6 active torsions:
REMARK  status: ('A' for Active; 'I' for Inactive)
REMARK    1  A    between atoms: C_4  and  C_5 
REMARK    2  A    between atoms: C_11  and  C_12 
REMARK    3  A    between atoms: C_12  and  C_13 
REMARK    4  A    between atoms: C_13  and  C_14 
REMARK    5  A    between atoms: C_18  and  C_19 
REMARK       I    between atoms: C_19  and  N_20 
REMARK    6  A    between atoms: C_27  and  C_28 
ROOT
ATOM      1  C   UNL d   1       1.445 -31.917 -11.399  0.00  0.00     0.013 A 
ATOM      2  C   UNL d   1       1.185 -32.701 -10.282  0.00  0.00     0.017 A 
ATOM      3  C   UNL d   1       2.226 -33.391  -9.696  0.00  0.00     0.024 A 
ATOM      4  C   UNL d   1       3.500 -33.302 -10.214  0.00  0.00     0.054 A 
ATOM      5  C   UNL d   1       4.580 -34.032  -9.589  0.00  0.00     0.100 C 
ATOM      6  N   UNL d   1       5.436 -34.629  -9.094  0.00  0.00    -0.191 NA
ATOM      7  C   UNL d   1       3.796 -32.532 -11.324  0.00  0.00     0.002 A 
ATOM      8  C   UNL d   1       2.731 -31.851 -11.887  0.00  0.00     0.135 A 
ATOM      9  F   UNL d   1       2.966 -31.085 -12.973  0.00  0.00    -0.205 F 
ENDROOT
BRANCH   7  10
ATOM     10  C   UNL d   1       5.177 -32.449 -11.862  0.00  0.00     0.048 C 
BRANCH  10  11
ATOM     11  C   UNL d   1       5.365 -33.376 -13.048  0.00  0.00     0.043 C 
BRANCH  11  12
ATOM     12  C   UNL d   1       5.326 -32.605 -14.320  0.00  0.00    -0.057 A 
ATOM     13  C   UNL d   1       6.350 -31.738 -14.654  0.00  0.00     0.007 A 
ATOM     14  C   UNL d   1       6.368 -31.005 -15.810  0.00  0.00     0.002 A 
ATOM     15  C   UNL d   1       5.326 -31.120 -16.701  0.00  0.00     0.017 A 
ATOM     16  C   UNL d   1       4.285 -31.979 -16.397  0.00  0.00     0.032 A 
ATOM     17  C   UNL d   1       4.288 -32.715 -15.214  0.00  0.00     0.024 A 
BRANCH  16  18
ATOM     18  C   UNL d   1       3.192 -32.098 -17.333  0.00  0.00     0.249 C 
ATOM     19  N   UNL d   1       1.889 -31.739 -16.919  0.00  0.00    -0.366 N 
ATOM     20  H   UNL d   1       1.737 -31.412 -16.002  0.00  0.00     0.159 HD
ATOM     21  H   UNL d   1       1.134 -31.814 -17.546  0.00  0.00     0.159 HD
ATOM     22  O   UNL d   1       3.383 -32.509 -18.489  0.00  0.00    -0.268 OA
ENDBRANCH  16  18
ENDBRANCH  11  12
ENDBRANCH  10  11
ENDBRANCH   7  10
BRANCH   1  23
ATOM     23  C   UNL d   1       0.332 -31.198 -11.997  0.00  0.00    -0.022 A 
ATOM     24  C   UNL d   1      -0.704 -30.707 -11.255  0.00  0.00     0.019 A 
ATOM     25  C   UNL d   1      -1.752 -30.024 -11.846  0.00  0.00    -0.054 A 
ATOM     26  C   UNL d   1      -2.871 -29.502 -11.006  0.00  0.00     0.049 C 
ATOM     27  C   UNL d   1      -1.782 -29.817 -13.217  0.00  0.00    -0.048 A 
ATOM     28  C   UNL d   1      -0.738 -30.312 -13.959  0.00  0.00     0.009 A 
ATOM     29  C   UNL d   1       0.320 -31.002 -13.360  0.00  0.00     0.013 A 
BRANCH  27  30
ATOM     30  C   UNL d   1      -2.933 -29.077 -13.790  0.00  0.00     0.019 A 
ATOM     31  C   UNL d   1      -3.937 -29.950 -14.585  0.00  0.00     0.010 A 
ATOM     32  C   UNL d   1      -3.118 -28.906 -15.238  0.00  0.00     0.010 A 
ENDBRANCH  27  30
ENDBRANCH   1  23
TORSDOF 6
ENDMDL
MODEL 3
REMARK VINA RESULT:      -9.7      3.492      7.231
REMARK  6 active torsions:
REMARK  status: ('A' for Active; 'I' for Inactive)
REMARK    1  A    between atoms: C_4  and  C_5 
REMARK    2  A    between atoms: C_11  and  C_12 
REMARK    3  A    between atoms: C_12  and  C_13 
REMARK    4  A    between atoms: C_13  and  C_14 
REMARK    5  A    between atoms: C_18  and  C_19 
REMARK       I    between atoms: C_19  and  N_20 
REMARK    6  A    between atoms: C_27  and  C_28 
ROOT
ATOM      1  C   UNL d   1       3.206 -32.389 -13.728  0.00  0.00     0.013 A 
ATOM      2  C   UNL d   1       4.246 -32.080 -14.596  0.00  0.00     0.017 A 
ATOM      3  C   UNL d   1       3.945 -31.721 -15.894  0.00  0.00     0.024 A 
ATOM      4  C   UNL d   1       2.635 -31.670 -16.317  0.00  0.00     0.054 A 
ATOM      5  C   UNL d   1       2.337 -31.292 -17.681  0.00  0.00     0.100 C 
ATOM      6  N   UNL d   1       2.105 -31.002 -18.774  0.00  0.00    -0.191 NA
ATOM      7  C   UNL d   1       1.575 -31.971 -15.482  0.00  0.00     0.002 A 
ATOM      8  C   UNL d   1       1.909 -32.326 -14.187  0.00  0.00     0.135 A 
ATOM      9  F   UNL d   1       0.911 -32.630 -13.331  0.00  0.00    -0.205 F 
ENDROOT
BRANCH   7  10
ATOM     10  C   UNL d   1       0.170 -31.906 -15.960  0.00  0.00     0.048 C 
BRANCH  10  11
ATOM     11  C   UNL d   1      -0.292 -30.472 -16.127  0.00  0.00     0.043 C 
BRANCH  11  12
ATOM     12  C   UNL d   1      -1.295 -30.125 -15.084  0.00  0.00    -0.057 A 
ATOM     13  C   UNL d   1      -2.577 -29.744 -15.435  0.00  0.00     0.007 A 
ATOM     14  C   UNL d   1      -3.540 -29.415 -14.520  0.00  0.00     0.002 A 
ATOM     15  C   UNL d   1      -3.243 -29.459 -13.177  0.00  0.00     0.017 A 
ATOM     16  C   UNL d   1      -1.969 -29.836 -12.793  0.00  0.00     0.032 A 
ATOM     17  C   UNL d   1      -1.004 -30.167 -13.742  0.00  0.00     0.024 A 
BRANCH  16  18
ATOM     18  C   UNL d   1      -1.658 -29.881 -11.384  0.00  0.00     0.249 C 
ATOM     19  N   UNL d   1      -0.481 -30.540 -10.959  0.00  0.00    -0.366 N 
ATOM     20  H   UNL d   1       0.114 -30.960 -11.622  0.00  0.00     0.159 HD
ATOM     21  H   UNL d   1      -0.256 -30.579 -10.001  0.00  0.00     0.159 HD
ATOM     22  O   UNL d   1      -2.407 -29.352 -10.547  0.00  0.00    -0.268 OA
ENDBRANCH  16  18
ENDBRANCH  11  12
ENDBRANCH  10  11
ENDBRANCH   7  10
BRANCH   1  23
ATOM     23  C   UNL d   1       3.548 -32.764 -12.366  0.00  0.00    -0.022 A 
ATOM     24  C   UNL d   1       4.517 -33.683 -12.083  0.00  0.00     0.019 A 
ATOM     25  C   UNL d   1       4.827 -34.023 -10.778  0.00  0.00    -0.054 A 
ATOM     26  C   UNL d   1       5.891 -35.035 -10.504  0.00  0.00     0.049 C 
ATOM     27  C   UNL d   1       4.160 -33.438  -9.714  0.00  0.00    -0.048 A 
ATOM     28  C   UNL d   1       3.186 -32.513 -10.003  0.00  0.00     0.009 A 
ATOM     29  C   UNL d   1       2.875 -32.171 -11.322  0.00  0.00     0.013 A 
BRANCH  27  30
ATOM     30  C   UNL d   1       4.539 -33.844  -8.338  0.00  0.00     0.019 A 
ATOM     31  C   UNL d   1       3.594 -34.885  -7.684  0.00  0.00     0.010 A 
ATOM     32  C   UNL d   1       3.723 -33.507  -7.164  0.00  0.00     0.010 A 
ENDBRANCH  27  30
ENDBRANCH   1  23
TORSDOF 6
ENDMDL
MODEL 4
REMARK VINA RESULT:      -9.7      3.699      7.338
REMARK  6 active torsions:
REMARK  status: ('A' for Active; 'I' for Inactive)
REMARK    1  A    between atoms: C_4  and  C_5 
REMARK    2  A    between atoms: C_11  and  C_12 
REMARK    3  A    between atoms: C_12  and  C_13 
REMARK    4  A    between atoms: C_13  and  C_14 
REMARK    5  A    between atoms: C_18  and  C_19 
REMARK       I    between atoms: C_19  and  N_20 
REMARK    6  A    between atoms: C_27  and  C_28 
ROOT
ATOM      1  C   UNL d   1      -2.973 -29.466 -11.750  0.00  0.00     0.013 A 
ATOM      2  C   UNL d   1      -4.302 -29.059 -11.758  0.00  0.00     0.017 A 
ATOM      3  C   UNL d   1      -4.901 -28.720 -10.562  0.00  0.00     0.024 A 
ATOM      4  C   UNL d   1      -4.190 -28.785  -9.383  0.00  0.00     0.054 A 
ATOM      5  C   UNL d   1      -4.833 -28.426  -8.139  0.00  0.00     0.100 C 
ATOM      6  N   UNL d   1      -5.355 -28.151  -7.146  0.00  0.00    -0.191 NA
ATOM      7  C   UNL d   1      -2.868 -29.185  -9.337  0.00  0.00     0.002 A 
ATOM      8  C   UNL d   1      -2.295 -29.518 -10.552  0.00  0.00     0.135 A 
ATOM      9  F   UNL d   1      -1.006 -29.915 -10.563  0.00  0.00    -0.205 F 
ENDROOT
BRANCH   7  10
ATOM     10  C   UNL d   1      -2.121 -29.245  -8.055  0.00  0.00     0.048 C 
BRANCH  10  11
ATOM     11  C   UNL d   1      -2.123 -30.647  -7.479  0.00  0.00     0.043 C 
BRANCH  11  12
ATOM     12  C   UNL d   1      -0.731 -31.147  -7.322  0.00  0.00    -0.057 A 
ATOM     13  C   UNL d   1       0.039 -30.767  -6.237  0.00  0.00     0.007 A 
ATOM     14  C   UNL d   1       1.324 -31.196  -6.041  0.00  0.00     0.002 A 
ATOM     15  C   UNL d   1       1.901 -32.048  -6.954  0.00  0.00     0.017 A 
ATOM     16  C   UNL d   1       1.157 -32.447  -8.051  0.00  0.00     0.032 A 
ATOM     17  C   UNL d   1      -0.149 -31.998  -8.230  0.00  0.00     0.024 A 
BRANCH  16  18
ATOM     18  C   UNL d   1       1.764 -33.340  -9.008  0.00  0.00     0.249 C 
ATOM     19  N   UNL d   1       1.118 -33.567 -10.245  0.00  0.00    -0.366 N 
ATOM     20  H   UNL d   1       0.265 -33.116 -10.444  0.00  0.00     0.159 HD
ATOM     21  H   UNL d   1       1.520 -34.174 -10.908  0.00  0.00     0.159 HD
ATOM     22  O   UNL d   1       2.840 -33.909  -8.759  0.00  0.00    -0.268 OA
ENDBRANCH  16  18
ENDBRANCH  11  12
ENDBRANCH  10  11
ENDBRANCH   7  10
BRANCH   1  23
ATOM     23  C   UNL d   1      -2.364 -29.817 -13.022  0.00  0.00    -0.022 A 
ATOM     24  C   UNL d   1      -1.060 -30.206 -13.124  0.00  0.00     0.019 A 
ATOM     25  C   UNL d   1      -0.501 -30.538 -14.346  0.00  0.00    -0.054 A 
ATOM     26  C   UNL d   1       0.931 -30.958 -14.422  0.00  0.00     0.049 C 
ATOM     27  C   UNL d   1      -1.254 -30.485 -15.508  0.00  0.00    -0.048 A 
ATOM     28  C   UNL d   1      -2.566 -30.094 -15.402  0.00  0.00     0.009 A 
ATOM     29  C   UNL d   1      -3.127 -29.759 -14.166  0.00  0.00     0.013 A 
BRANCH  27  30
ATOM     30  C   UNL d   1      -0.597 -30.854 -16.787  0.00  0.00     0.019 A 
ATOM     31  C   UNL d   1      -0.456 -29.693 -17.804  0.00  0.00     0.010 A 
ATOM     32  C   UNL d   1      -1.317 -30.866 -18.068  0.00  0.00     0.010 A 
ENDBRANCH  27  30
ENDBRANCH   1  23
TORSDOF 6
ENDMDL
MODEL 5
REMARK VINA RESULT:      -9.7      3.779      6.914
REMARK  6 active torsions:
REMARK  status: ('A' for Active; 'I' for Inactive)
REMARK    1  A    between atoms: C_4  and  C_5 
REMARK    2  A    between atoms: C_11  and  C_12 
REMARK    3  A    between atoms: C_12  and  C_13 
REMARK    4  A    between atoms: C_13  and  C_14 
REMARK    5  A    between atoms: C_18  and  C_19 
REMARK       I    between atoms: C_19  and  N_20 
REMARK    6  A    between atoms: C_27  and  C_28 
ROOT
ATOM      1  C   UNL d   1       2.549 -31.666 -14.543  0.00  0.00     0.013 A 
ATOM      2  C   UNL d   1       3.491 -31.192 -15.447  0.00  0.00     0.017 A 
ATOM      3  C   UNL d   1       4.819 -31.508 -15.251  0.00  0.00     0.024 A 
ATOM      4  C   UNL d   1       5.201 -32.280 -14.176  0.00  0.00     0.054 A 
ATOM      5  C   UNL d   1       6.598 -32.602 -13.985  0.00  0.00     0.100 C 
ATOM      6  N   UNL d   1       7.716 -32.845 -13.830  0.00  0.00    -0.191 NA
ATOM      7  C   UNL d   1       4.292 -32.769 -13.256  0.00  0.00     0.002 A 
ATOM      8  C   UNL d   1       2.968 -32.436 -13.481  0.00  0.00     0.135 A 
ATOM      9  F   UNL d   1       2.039 -32.889 -12.612  0.00  0.00    -0.205 F 
ENDROOT
BRANCH   7  10
ATOM     10  C   UNL d   1       4.726 -33.603 -12.107  0.00  0.00     0.048 C 
BRANCH  10  11
ATOM     11  C   UNL d   1       4.945 -32.761 -10.865  0.00  0.00     0.043 C 
BRANCH  11  12
ATOM     12  C   UNL d   1       3.990 -33.155  -9.795  0.00  0.00    -0.057 A 
ATOM     13  C   UNL d   1       4.318 -34.140  -8.881  0.00  0.00     0.007 A 
ATOM     14  C   UNL d   1       3.480 -34.542  -7.876  0.00  0.00     0.002 A 
ATOM     15  C   UNL d   1       2.244 -33.952  -7.747  0.00  0.00     0.017 A 
ATOM     16  C   UNL d   1       1.885 -32.963  -8.646  0.00  0.00     0.032 A 
ATOM     17  C   UNL d   1       2.754 -32.569  -9.661  0.00  0.00     0.024 A 
BRANCH  16  18
ATOM     18  C   UNL d   1       0.587 -32.345  -8.510  0.00  0.00     0.249 C 
ATOM     19  N   UNL d   1       0.387 -31.043  -9.024  0.00  0.00    -0.366 N 
ATOM     20  H   UNL d   1       1.128 -30.571  -9.468  0.00  0.00     0.159 HD
ATOM     21  H   UNL d   1      -0.492 -30.609  -8.939  0.00  0.00     0.159 HD
ATOM     22  O   UNL d   1      -0.348 -32.939  -7.950  0.00  0.00    -0.268 OA
ENDBRANCH  16  18
ENDBRANCH  11  12
ENDBRANCH  10  11
ENDBRANCH   7  10
BRANCH   1  23
ATOM     23  C   UNL d   1       1.155 -31.320 -14.771  0.00  0.00    -0.022 A 
ATOM     24  C   UNL d   1       0.464 -31.759 -15.864  0.00  0.00     0.019 A 
ATOM     25  C   UNL d   1      -0.863 -31.419 -16.059  0.00  0.00    -0.054 A 
ATOM     26  C   UNL d   1      -1.590 -31.915 -17.267  0.00  0.00     0.049 C 
ATOM     27  C   UNL d   1      -1.533 -30.619 -15.147  0.00  0.00    -0.048 A 
ATOM     28  C   UNL d   1      -0.834 -30.180 -14.050  0.00  0.00     0.009 A 
ATOM     29  C   UNL d   1       0.506 -30.525 -13.855  0.00  0.00     0.013 A 
BRANCH  27  30
ATOM     30  C   UNL d   1      -2.955 -30.291 -15.413  0.00  0.00     0.019 A 
ATOM     31  C   UNL d   1      -3.293 -28.778 -15.370  0.00  0.00     0.010 A 
ATOM     32  C   UNL d   1      -3.842 -29.732 -14.382  0.00  0.00     0.010 A 
ENDBRANCH  27  30
ENDBRANCH   1  23
TORSDOF 6
ENDMDL
MODEL 6
REMARK VINA RESULT:      -9.5      2.031      2.575
REMARK  6 active torsions:
REMARK  status: ('A' for Active; 'I' for Inactive)
REMARK    1  A    between atoms: C_4  and  C_5 
REMARK    2  A    between atoms: C_11  and  C_12 
REMARK    3  A    between atoms: C_12  and  C_13 
REMARK    4  A    between atoms: C_13  and  C_14 
REMARK    5  A    between atoms: C_18  and  C_19 
REMARK       I    between atoms: C_19  and  N_20 
REMARK    6  A    between atoms: C_27  and  C_28 
ROOT
ATOM      1  C   UNL d   1      -2.635 -29.822 -13.365  0.00  0.00     0.013 A 
ATOM      2  C   UNL d   1      -3.632 -29.878 -14.330  0.00  0.00     0.017 A 
ATOM      3  C   UNL d   1      -3.281 -30.152 -15.636  0.00  0.00     0.024 A 
ATOM      4  C   UNL d   1      -1.961 -30.365 -15.972  0.00  0.00     0.054 A 
ATOM      5  C   UNL d   1      -1.610 -30.651 -17.345  0.00  0.00     0.100 C 
ATOM      6  N   UNL d   1      -1.333 -30.865 -18.446  0.00  0.00    -0.191 NA
ATOM      7  C   UNL d   1      -0.942 -30.317 -15.039  0.00  0.00     0.002 A 
ATOM      8  C   UNL d   1      -1.327 -30.041 -13.739  0.00  0.00     0.135 A 
ATOM      9  F   UNL d   1      -0.370 -29.982 -12.789  0.00  0.00    -0.205 F 
ENDROOT
BRANCH   7  10
ATOM     10  C   UNL d   1       0.472 -30.553 -15.424  0.00  0.00     0.048 C 
BRANCH  10  11
ATOM     11  C   UNL d   1       0.916 -31.958 -15.065  0.00  0.00     0.043 C 
BRANCH  11  12
ATOM     12  C   UNL d   1       1.891 -31.923 -13.942  0.00  0.00    -0.057 A 
ATOM     13  C   UNL d   1       3.141 -31.354 -14.108  0.00  0.00     0.007 A 
ATOM     14  C   UNL d   1       4.077 -31.293 -13.111  0.00  0.00     0.002 A 
ATOM     15  C   UNL d   1       3.783 -31.816 -11.872  0.00  0.00     0.017 A 
ATOM     16  C   UNL d   1       2.541 -32.393 -11.674  0.00  0.00     0.032 A 
ATOM     17  C   UNL d   1       1.604 -32.444 -12.703  0.00  0.00     0.024 A 
BRANCH  16  18
ATOM     18  C   UNL d   1       2.235 -32.941 -10.374  0.00  0.00     0.249 C 
ATOM     19  N   UNL d   1       0.957 -33.502 -10.148  0.00  0.00    -0.366 N 
ATOM     20  H   UNL d   1       0.290 -33.515 -10.872  0.00  0.00     0.159 HD
ATOM     21  H   UNL d   1       0.733 -33.880  -9.267  0.00  0.00     0.159 HD
ATOM     22  O   UNL d   1       3.075 -32.927  -9.460  0.00  0.00    -0.268 OA
ENDBRANCH  16  18
ENDBRANCH  11  12
ENDBRANCH  10  11
ENDBRANCH   7  10
BRANCH   1  23
ATOM     23  C   UNL d   1      -3.030 -29.532 -11.996  0.00  0.00    -0.022 A 
ATOM     24  C   UNL d   1      -2.193 -29.734 -10.937  0.00  0.00     0.019 A 
ATOM     25  C   UNL d   1      -2.590 -29.450  -9.642  0.00  0.00    -0.054 A 
ATOM     26  C   UNL d   1      -1.651 -29.684  -8.505  0.00  0.00     0.049 C 
ATOM     27  C   UNL d   1      -3.856 -28.948  -9.381  0.00  0.00    -0.048 A 
ATOM     28  C   UNL d   1      -4.694 -28.746 -10.450  0.00  0.00     0.009 A 
ATOM     29  C   UNL d   1      -4.291 -29.035 -11.757  0.00  0.00     0.013 A 
BRANCH  27  30
ATOM     30  C   UNL d   1      -4.221 -28.663  -7.972  0.00  0.00     0.019 A 
ATOM     31  C   UNL d   1      -4.980 -29.807  -7.252  0.00  0.00     0.010 A 
ATOM     32  C   UNL d   1      -5.616 -28.502  -7.536  0.00  0.00     0.010 A 
ENDBRANCH  27  30
ENDBRANCH   1  23
TORSDOF 6
ENDMDL
MODEL 7
REMARK VINA RESULT:      -9.2      3.765      8.022
REMARK  6 active torsions:
REMARK  status: ('A' for Active; 'I' for Inactive)
REMARK    1  A    between atoms: C_4  and  C_5 
REMARK    2  A    between atoms: C_11  and  C_12 
REMARK    3  A    between atoms: C_12  and  C_13 
REMARK    4  A    between atoms: C_13  and  C_14 
REMARK    5  A    between atoms: C_18  and  C_19 
REMARK       I    between atoms: C_19  and  N_20 
REMARK    6  A    between atoms: C_27  and  C_28 
ROOT
ATOM      1  C   UNL d   1       2.778 -31.459 -13.262  0.00  0.00     0.013 A 
ATOM      2  C   UNL d   1       4.053 -31.123 -13.700  0.00  0.00     0.017 A 
ATOM      3  C   UNL d   1       5.118 -31.287 -12.839  0.00  0.00     0.024 A 
ATOM      4  C   UNL d   1       4.916 -31.776 -11.566  0.00  0.00     0.054 A 
ATOM      5  C   UNL d   1       6.043 -31.942 -10.676  0.00  0.00     0.100 C 
ATOM      6  N   UNL d   1       6.945 -32.059  -9.964  0.00  0.00    -0.191 NA
ATOM      7  C   UNL d   1       3.662 -32.120 -11.095  0.00  0.00     0.002 A 
ATOM      8  C   UNL d   1       2.615 -31.945 -11.983  0.00  0.00     0.135 A 
ATOM      9  F   UNL d   1       1.370 -32.266 -11.573  0.00  0.00    -0.205 F 
ENDROOT
BRANCH   7  10
ATOM     10  C   UNL d   1       3.470 -32.647  -9.721  0.00  0.00     0.048 C 
BRANCH  10  11
ATOM     11  C   UNL d   1       3.428 -31.527  -8.699  0.00  0.00     0.043 C 
BRANCH  11  12
ATOM     12  C   UNL d   1       2.102 -31.487  -8.027  0.00  0.00    -0.057 A 
ATOM     13  C   UNL d   1       2.009 -31.335  -6.655  0.00  0.00     0.007 A 
ATOM     14  C   UNL d   1       0.817 -31.291  -5.983  0.00  0.00     0.002 A 
ATOM     15  C   UNL d   1      -0.361 -31.399  -6.685  0.00  0.00     0.017 A 
ATOM     16  C   UNL d   1      -0.303 -31.552  -8.058  0.00  0.00     0.032 A 
ATOM     17  C   UNL d   1       0.921 -31.595  -8.721  0.00  0.00     0.024 A 
BRANCH  16  18
ATOM     18  C   UNL d   1      -1.540 -31.666  -8.793  0.00  0.00     0.249 C 
ATOM     19  N   UNL d   1      -2.201 -30.490  -9.216  0.00  0.00    -0.366 N 
ATOM     20  H   UNL d   1      -1.816 -29.608  -9.008  0.00  0.00     0.159 HD
ATOM     21  H   UNL d   1      -3.046 -30.552  -9.718  0.00  0.00     0.159 HD
ATOM     22  O   UNL d   1      -2.027 -32.778  -9.057  0.00  0.00    -0.268 OA
ENDBRANCH  16  18
ENDBRANCH  11  12
ENDBRANCH  10  11
ENDBRANCH   7  10
BRANCH   1  23
ATOM     23  C   UNL d   1       1.672 -31.278 -14.187  0.00  0.00    -0.022 A 
ATOM     24  C   UNL d   1       0.516 -30.647 -13.829  0.00  0.00     0.019 A 
ATOM     25  C   UNL d   1      -0.523 -30.484 -14.728  0.00  0.00    -0.054 A 
ATOM     26  C   UNL d   1      -1.776 -29.791 -14.302  0.00  0.00     0.049 C 
ATOM     27  C   UNL d   1      -0.420 -30.959 -16.026  0.00  0.00    -0.048 A 
ATOM     28  C   UNL d   1       0.745 -31.592 -16.383  0.00  0.00     0.009 A 
ATOM     29  C   UNL d   1       1.793 -31.755 -15.473  0.00  0.00     0.013 A 
BRANCH  27  30
ATOM     30  C   UNL d   1      -1.569 -30.752 -16.942  0.00  0.00     0.019 A 
ATOM     31  C   UNL d   1      -2.350 -32.041 -17.307  0.00  0.00     0.010 A 
ATOM     32  C   UNL d   1      -1.586 -31.275 -18.316  0.00  0.00     0.010 A 
ENDBRANCH  27  30
ENDBRANCH   1  23
TORSDOF 6
ENDMDL
MODEL 8
REMARK VINA RESULT:      -9.1      1.837      2.154
REMARK  6 active torsions:
REMARK  status: ('A' for Active; 'I' for Inactive)
REMARK    1  A    between atoms: C_4  and  C_5 
REMARK    2  A    between atoms: C_11  and  C_12 
REMARK    3  A    between atoms: C_12  and  C_13 
REMARK    4  A    between atoms: C_13  and  C_14 
REMARK    5  A    between atoms: C_18  and  C_19 
REMARK       I    between atoms: C_19  and  N_20 
REMARK    6  A    between atoms: C_27  and  C_28 
ROOT
ATOM      1  C   UNL d   1      -1.698 -30.105 -13.490  0.00  0.00     0.013 A 
ATOM      2  C   UNL d   1      -2.405 -29.635 -14.589  0.00  0.00     0.017 A 
ATOM      3  C   UNL d   1      -1.896 -29.855 -15.852  0.00  0.00     0.024 A 
ATOM      4  C   UNL d   1      -0.706 -30.531 -16.016  0.00  0.00     0.054 A 
ATOM      5  C   UNL d   1      -0.187 -30.753 -17.347  0.00  0.00     0.100 C 
ATOM      6  N   UNL d   1       0.231 -30.916 -18.411  0.00  0.00    -0.191 NA
ATOM      7  C   UNL d   1       0.025 -31.013 -14.946  0.00  0.00     0.002 A 
ATOM      8  C   UNL d   1      -0.512 -30.777 -13.693  0.00  0.00     0.135 A 
ATOM      9  F   UNL d   1       0.162 -31.227 -12.614  0.00  0.00    -0.205 F 
ENDROOT
BRANCH   7  10
ATOM     10  C   UNL d   1       1.303 -31.740 -15.147  0.00  0.00     0.048 C 
BRANCH  10  11
ATOM     11  C   UNL d   1       2.488 -30.916 -14.682  0.00  0.00     0.043 C 
BRANCH  11  12
ATOM     12  C   UNL d   1       3.495 -31.784 -14.016  0.00  0.00    -0.057 A 
ATOM     13  C   UNL d   1       4.711 -32.050 -14.621  0.00  0.00     0.007 A 
ATOM     14  C   UNL d   1       5.675 -32.840 -14.055  0.00  0.00     0.002 A 
ATOM     15  C   UNL d   1       5.448 -33.409 -12.824  0.00  0.00     0.017 A 
ATOM     16  C   UNL d   1       4.242 -33.164 -12.192  0.00  0.00     0.032 A 
ATOM     17  C   UNL d   1       3.275 -32.356 -12.786  0.00  0.00     0.024 A 
BRANCH  16  18
ATOM     18  C   UNL d   1       4.005 -33.762 -10.900  0.00  0.00     0.249 C 
ATOM     19  N   UNL d   1       2.767 -33.540 -10.254  0.00  0.00    -0.366 N 
ATOM     20  H   UNL d   1       2.080 -32.983 -10.687  0.00  0.00     0.159 HD
ATOM     21  H   UNL d   1       2.591 -33.942  -9.373  0.00  0.00     0.159 HD
ATOM     22  O   UNL d   1       4.871 -34.465 -10.353  0.00  0.00    -0.268 OA
ENDBRANCH  16  18
ENDBRANCH  11  12
ENDBRANCH  10  11
ENDBRANCH   7  10
BRANCH   1  23
ATOM     23  C   UNL d   1      -2.255 -29.861 -12.169  0.00  0.00    -0.022 A 
ATOM     24  C   UNL d   1      -3.526 -29.398 -11.987  0.00  0.00     0.019 A 
ATOM     25  C   UNL d   1      -4.036 -29.175 -10.721  0.00  0.00    -0.054 A 
ATOM     26  C   UNL d   1      -5.431 -28.666 -10.557  0.00  0.00     0.049 C 
ATOM     27  C   UNL d   1      -3.267 -29.417  -9.593  0.00  0.00    -0.048 A 
ATOM     28  C   UNL d   1      -1.989 -29.883  -9.780  0.00  0.00     0.009 A 
ATOM     29  C   UNL d   1      -1.476 -30.107 -11.061  0.00  0.00     0.013 A 
BRANCH  27  30
ATOM     30  C   UNL d   1      -3.872 -29.159  -8.263  0.00  0.00     0.019 A 
ATOM     31  C   UNL d   1      -3.353 -27.884  -7.549  0.00  0.00     0.010 A 
ATOM     32  C   UNL d   1      -3.098 -29.240  -7.016  0.00  0.00     0.010 A 
ENDBRANCH  27  30
ENDBRANCH   1  23
TORSDOF 6
ENDMDL
MODEL 9
REMARK VINA RESULT:      -9.0      4.079      7.161
REMARK  6 active torsions:
REMARK  status: ('A' for Active; 'I' for Inactive)
REMARK    1  A    between atoms: C_4  and  C_5 
REMARK    2  A    between atoms: C_11  and  C_12 
REMARK    3  A    between atoms: C_12  and  C_13 
REMARK    4  A    between atoms: C_13  and  C_14 
REMARK    5  A    between atoms: C_18  and  C_19 
REMARK       I    between atoms: C_19  and  N_20 
REMARK    6  A    between atoms: C_27  and  C_28 
ROOT
ATOM      1  C   UNL d   1       2.570 -31.689 -14.384  0.00  0.00     0.013 A 
ATOM      2  C   UNL d   1       3.517 -31.272 -15.310  0.00  0.00     0.017 A 
ATOM      3  C   UNL d   1       4.840 -31.610 -15.109  0.00  0.00     0.024 A 
ATOM      4  C   UNL d   1       5.210 -32.349 -14.006  0.00  0.00     0.054 A 
ATOM      5  C   UNL d   1       6.600 -32.695 -13.810  0.00  0.00     0.100 C 
ATOM      6  N   UNL d   1       7.713 -32.956 -13.651  0.00  0.00    -0.191 NA
ATOM      7  C   UNL d   1       4.295 -32.781 -13.064  0.00  0.00     0.002 A 
ATOM      8  C   UNL d   1       2.978 -32.427 -13.294  0.00  0.00     0.135 A 
ATOM      9  F   UNL d   1       2.045 -32.823 -12.404  0.00  0.00    -0.205 F 
ENDROOT
BRANCH   7  10
ATOM     10  C   UNL d   1       4.717 -33.578 -11.884  0.00  0.00     0.048 C 
BRANCH  10  11
ATOM     11  C   UNL d   1       5.254 -32.690 -10.779  0.00  0.00     0.043 C 
BRANCH  11  12
ATOM     12  C   UNL d   1       4.402 -32.800  -9.565  0.00  0.00    -0.057 A 
ATOM     13  C   UNL d   1       3.130 -32.257  -9.540  0.00  0.00     0.007 A 
ATOM     14  C   UNL d   1       2.303 -32.329  -8.453  0.00  0.00     0.002 A 
ATOM     15  C   UNL d   1       2.734 -32.970  -7.314  0.00  0.00     0.017 A 
ATOM     16  C   UNL d   1       4.002 -33.524  -7.305  0.00  0.00     0.032 A 
ATOM     17  C   UNL d   1       4.827 -33.439  -8.424  0.00  0.00     0.024 A 
BRANCH  16  18
ATOM     18  C   UNL d   1       4.453 -34.196  -6.110  0.00  0.00     0.249 C 
ATOM     19  N   UNL d   1       4.818 -33.424  -4.983  0.00  0.00    -0.366 N 
ATOM     20  H   UNL d   1       4.761 -32.441  -5.020  0.00  0.00     0.159 HD
ATOM     21  H   UNL d   1       5.127 -33.868  -4.160  0.00  0.00     0.159 HD
ATOM     22  O   UNL d   1       4.524 -35.434  -6.060  0.00  0.00    -0.268 OA
ENDBRANCH  16  18
ENDBRANCH  11  12
ENDBRANCH  10  11
ENDBRANCH   7  10
BRANCH   1  23
ATOM     23  C   UNL d   1       1.183 -31.321 -14.618  0.00  0.00    -0.022 A 
ATOM     24  C   UNL d   1       0.485 -31.761 -15.706  0.00  0.00     0.019 A 
ATOM     25  C   UNL d   1      -0.835 -31.400 -15.907  0.00  0.00    -0.054 A 
ATOM     26  C   UNL d   1      -1.570 -31.898 -17.109  0.00  0.00     0.049 C 
ATOM     27  C   UNL d   1      -1.491 -30.575 -15.007  0.00  0.00    -0.048 A 
ATOM     28  C   UNL d   1      -0.785 -30.135 -13.914  0.00  0.00     0.009 A 
ATOM     29  C   UNL d   1       0.548 -30.502 -13.713  0.00  0.00     0.013 A 
BRANCH  27  30
ATOM     30  C   UNL d   1      -2.907 -30.225 -15.279  0.00  0.00     0.019 A 
ATOM     31  C   UNL d   1      -3.192 -28.705 -15.384  0.00  0.00     0.010 A 
ATOM     32  C   UNL d   1      -3.751 -29.533 -14.295  0.00  0.00     0.010 A 
ENDBRANCH  27  30
ENDBRANCH   1  23
TORSDOF 6
ENDMDL
