REMARK  6 active torsions:
REMARK  status: ('A' for Active; 'I' for Inactive)
REMARK    1  A    between atoms: C_4  and  C_5 
REMARK    2  A    between atoms: C_11  and  C_12 
REMARK    3  A    between atoms: C_12  and  C_13 
REMARK    4  A    between atoms: C_13  and  C_14 
REMARK    5  A    between atoms: C_18  and  C_19 
REMARK       I    between atoms: C_19  and  N_20 
REMARK    6  A    between atoms: C_27  and  C_28 
ROOT
ATOM      1  C   UNL d   1      -1.289   1.468  -0.221  0.00  0.00     0.013 A 
ATOM      2  C   UNL d   1      -1.098   2.742  -0.741  0.00  0.00     0.017 A 
ATOM      3  C   UNL d   1       0.176   3.271  -0.756  0.00  0.00     0.024 A 
ATOM      4  C   UNL d   1       1.238   2.545  -0.262  0.00  0.00     0.054 A 
ATOM      5  C   UNL d   1       2.567   3.114  -0.285  0.00  0.00     0.100 C 
ATOM      6  N   UNL d   1       3.624   3.579  -0.293  0.00  0.00    -0.191 NA
ATOM      7  C   UNL d   1       1.086   1.275   0.263  0.00  0.00     0.002 A 
ATOM      8  C   UNL d   1      -0.203   0.772   0.263  0.00  0.00     0.135 A 
ATOM      9  F   UNL d   1      -0.406  -0.464   0.765  0.00  0.00    -0.205 F 
ENDROOT
BRANCH   7  10
ATOM     10  C   UNL d   1       2.246   0.510   0.787  0.00  0.00     0.048 C 
BRANCH  10  11
ATOM     11  C   UNL d   1       3.090  -0.055  -0.339  0.00  0.00     0.043 C 
BRANCH  11  12
ATOM     12  C   UNL d   1       4.243  -0.818   0.209  0.00  0.00    -0.057 A 
ATOM     13  C   UNL d   1       4.135  -2.172   0.472  0.00  0.00     0.007 A 
ATOM     14  C   UNL d   1       5.162  -2.924   0.975  0.00  0.00     0.002 A 
ATOM     15  C   UNL d   1       6.373  -2.327   1.240  0.00  0.00     0.017 A 
ATOM     16  C   UNL d   1       6.514  -0.974   0.988  0.00  0.00     0.032 A 
ATOM     17  C   UNL d   1       5.455  -0.228   0.476  0.00  0.00     0.024 A 
BRANCH  16  18
ATOM     18  C   UNL d   1       7.785  -0.349   1.267  0.00  0.00     0.249 C 
ATOM     19  N   UNL d   1       7.949   1.029   0.996  0.00  0.00    -0.366 N 
ATOM     20  H   UNL d   1       7.201   1.549   0.622  0.00  0.00     0.159 HD
ATOM     21  H   UNL d   1       8.810   1.469   1.181  0.00  0.00     0.159 HD
ATOM     22  O   UNL d   1       8.729  -1.003   1.739  0.00  0.00    -0.268 OA
ENDBRANCH  16  18
ENDBRANCH  11  12
ENDBRANCH  10  11
ENDBRANCH   7  10
BRANCH   1  23
ATOM     23  C   UNL d   1      -2.640   0.932  -0.217  0.00  0.00    -0.022 A 
ATOM     24  C   UNL d   1      -2.919  -0.347  -0.604  0.00  0.00     0.019 A 
ATOM     25  C   UNL d   1      -4.213  -0.837  -0.590  0.00  0.00    -0.054 A 
ATOM     26  C   UNL d   1      -4.484  -2.241  -1.022  0.00  0.00     0.049 C 
ATOM     27  C   UNL d   1      -5.270  -0.039  -0.181  0.00  0.00    -0.048 A 
ATOM     28  C   UNL d   1      -4.985   1.247   0.208  0.00  0.00     0.009 A 
ATOM     29  C   UNL d   1      -3.677   1.739   0.193  0.00  0.00     0.013 A 
BRANCH  27  30
ATOM     30  C   UNL d   1      -6.634  -0.623  -0.188  0.00  0.00     0.019 A 
ATOM     31  C   UNL d   1      -7.415  -0.435  -1.514  0.00  0.00     0.010 A 
ATOM     32  C   UNL d   1      -7.846   0.206  -0.253  0.00  0.00     0.010 A 
ENDBRANCH  27  30
ENDBRANCH   1  23
TORSDOF 6
