
     RDKit          3D

 30 33  0  0  0  0  0  0  0  0999 V2000
   -4.4841   -2.2414   -1.0215 C   0  0  0  0  0  0  0  0  0  0  0  0
   -4.2132   -0.8365   -0.5904 C   0  0  0  0  0  0  0  0  0  0  0  0
   -2.9187   -0.3473   -0.6043 C   0  0  0  0  0  0  0  0  0  0  0  0
   -2.6404    0.9323   -0.2167 C   0  0  0  0  0  0  0  0  0  0  0  0
   -1.2890    1.4681   -0.2211 C   0  0  0  0  0  0  0  0  0  0  0  0
   -1.0979    2.7421   -0.7413 C   0  0  0  0  0  0  0  0  0  0  0  0
    0.1763    3.2714   -0.7562 C   0  0  0  0  0  0  0  0  0  0  0  0
    1.2380    2.5448   -0.2623 C   0  0  0  0  0  0  0  0  0  0  0  0
    2.5667    3.1141   -0.2850 C   0  0  0  0  0  0  0  0  0  0  0  0
    3.6240    3.5791   -0.2927 N   0  0  0  0  0  0  0  0  0  0  0  0
    1.0862    1.2752    0.2625 C   0  0  0  0  0  0  0  0  0  0  0  0
    2.2458    0.5105    0.7874 C   0  0  0  0  0  0  0  0  0  0  0  0
    3.0904   -0.0552   -0.3387 C   0  0  0  0  0  0  0  0  0  0  0  0
    4.2427   -0.8180    0.2086 C   0  0  0  0  0  0  0  0  0  0  0  0
    4.1345   -2.1725    0.4720 C   0  0  0  0  0  0  0  0  0  0  0  0
    5.1625   -2.9243    0.9751 C   0  0  0  0  0  0  0  0  0  0  0  0
    6.3734   -2.3268    1.2405 C   0  0  0  0  0  0  0  0  0  0  0  0
    6.5140   -0.9741    0.9880 C   0  0  0  0  0  0  0  0  0  0  0  0
    7.7853   -0.3488    1.2672 C   0  0  0  0  0  0  0  0  0  0  0  0
    7.9488    1.0293    0.9960 N   0  0  0  0  0  0  0  0  0  0  0  0
    8.7293   -1.0030    1.7391 O   0  0  0  0  0  0  0  0  0  0  0  0
    5.4550   -0.2282    0.4760 C   0  0  0  0  0  0  0  0  0  0  0  0
   -0.2030    0.7724    0.2633 C   0  0  0  0  0  0  0  0  0  0  0  0
   -0.4059   -0.4641    0.7652 F   0  0  0  0  0  0  0  0  0  0  0  0
   -3.6773    1.7387    0.1928 C   0  0  0  0  0  0  0  0  0  0  0  0
   -4.9849    1.2471    0.2079 C   0  0  0  0  0  0  0  0  0  0  0  0
   -5.2702   -0.0394   -0.1809 C   0  0  0  0  0  0  0  0  0  0  0  0
   -6.6343   -0.6231   -0.1875 C   0  0  0  0  0  0  0  0  0  0  0  0
   -7.4154   -0.4354   -1.5141 C   0  0  0  0  0  0  0  0  0  0  0  0
   -7.8460    0.2060   -0.2526 C   0  0  0  0  0  0  0  0  0  0  0  0
  1  2  1  0
  2  3  2  0
  3  4  1  0
  4  5  1  0
  5  6  2  0
  6  7  1  0
  7  8  2  0
  8  9  1  0
  9 10  3  0
  8 11  1  0
 11 12  1  0
 12 13  1  0
 13 14  1  0
 14 15  2  0
 15 16  1  0
 16 17  2  0
 17 18  1  0
 18 19  1  0
 19 20  1  0
 19 21  2  0
 18 22  2  0
 11 23  2  0
 23 24  1  0
  4 25  2  0
 25 26  1  0
 26 27  2  0
 27 28  1  0
 28 29  1  0
 29 30  1  0
 27  2  1  0
 30 28  1  0
 23  5  1  0
 22 14  1  0
M  END
$$$$
