REMARK  3 active torsions:
REMARK  status: ('A' for Active; 'I' for Inactive)
REMARK    1  A    between atoms: C_5  and  C_6 
REMARK    2  A    between atoms: C_13  and  C_14 
REMARK    3  A    between atoms: C_20  and  C_21 
REMARK       I    between atoms: C_21  and  N_23 
REMARK       I    between atoms: N_23  and  C_24 
ROOT
ATOM      1  C   UNL d   1      -0.902   2.165  -1.030  0.00  0.00    -0.015 A 
ATOM      2  C   UNL d   1      -1.438   3.193  -1.815  0.00  0.00     0.014 A 
ATOM      3  C   UNL d   1      -0.616   4.057  -2.502  0.00  0.00     0.023 A 
ATOM      4  C   UNL d   1       0.747   3.904  -2.410  0.00  0.00     0.045 A 
ATOM      5  C   UNL d   1       1.583   4.837  -3.153  0.00  0.00     0.099 C 
ATOM      6  N   UNL d   1       2.251   5.563  -3.755  0.00  0.00    -0.191 NA
ATOM      7  C   UNL d   1       1.260   2.895  -1.638  0.00  0.00     0.036 A 
ATOM      8  C   UNL d   1       0.461   2.006  -0.933  0.00  0.00    -0.013 A 
ENDROOT
BRANCH   8   9
ATOM      9  C   UNL d   1       1.086   0.964  -0.131  0.00  0.00    -0.023 A 
ATOM     10  C   UNL d   1       0.908   0.922   1.236  0.00  0.00     0.035 A 
ATOM     11  C   UNL d   1       1.482  -0.045   2.037  0.00  0.00     0.046 A 
ATOM     12  C   UNL d   1       1.265  -0.046   3.461  0.00  0.00     0.099 C 
ATOM     13  C   UNL d   1       2.280  -1.030   1.451  0.00  0.00     0.039 A 
ATOM     14  N   UNL d   1       1.105  -0.034   4.606  0.00  0.00    -0.191 NA
ATOM     15  C   UNL d   1       2.472  -1.008   0.092  0.00  0.00     0.034 A 
ATOM     16  C   UNL d   1       1.877  -0.015  -0.691  0.00  0.00     0.029 A 
BRANCH  15  17
ATOM     17  C   UNL d   1       3.303  -2.036  -0.518  0.00  0.00     0.260 C 
ATOM     18  O   UNL d   1       3.520  -1.991  -1.766  0.00  0.00    -0.267 OA
ATOM     19  N   UNL d   1       3.904  -3.107   0.180  0.00  0.00    -0.267 N 
ATOM     20  C   UNL d   1       4.723  -4.088  -0.491  0.00  0.00     0.290 C 
ATOM     21  H   UNL d   1       3.760  -3.186   1.151  0.00  0.00     0.175 HD
ATOM     22  O   UNL d   1       4.877  -3.937  -1.725  0.00  0.00    -0.629 OA
ATOM     23  O   UNL d   1       5.299  -5.137   0.217  0.00  0.00    -0.629 OA
ENDBRANCH  15  17
ENDBRANCH   8   9
BRANCH   1  24
ATOM     24  C   UNL d   1      -1.807   1.256  -0.319  0.00  0.00    -0.025 A 
ATOM     25  C   UNL d   1      -2.473   1.700   0.804  0.00  0.00     0.013 A 
ATOM     26  C   UNL d   1      -3.334   0.859   1.467  0.00  0.00     0.008 A 
ATOM     27  C   UNL d   1      -3.570  -0.438   1.054  0.00  0.00    -0.056 A 
ATOM     28  C   UNL d   1      -4.500  -1.358   1.758  0.00  0.00     0.049 C 
ATOM     29  C   UNL d   1      -2.901  -0.882  -0.074  0.00  0.00    -0.055 A 
ATOM     30  C   UNL d   1      -2.037  -0.033  -0.736  0.00  0.00     0.019 A 
ATOM     31  C   UNL d   1      -3.159  -2.284  -0.532  0.00  0.00     0.049 C 
ENDBRANCH   1  24
TORSDOF 3
