REMARK  3 active torsions:
REMARK  status: ('A' for Active; 'I' for Inactive)
REMARK    1  A    between atoms: C_3  and  C_4 
REMARK    2  A    between atoms: C_10  and  C_11 
REMARK       I    between atoms: C_11  and  N_12 
REMARK    3  A    between atoms: C_20  and  C_21 
ROOT
ATOM      1  C   UNL d   1       1.458  -0.276  -1.313  0.00  0.00    -0.024 A 
ATOM      2  C   UNL d   1       2.121   0.395  -2.335  0.00  0.00     0.014 A 
ATOM      3  C   UNL d   1       3.492   0.396  -2.416  0.00  0.00     0.024 A 
ATOM      4  C   UNL d   1       4.231  -0.281  -1.467  0.00  0.00     0.060 A 
ATOM      5  C   UNL d   1       5.660  -0.258  -1.582  0.00  0.00     0.100 C 
ATOM      6  N   UNL d   1       6.813  -0.239  -1.677  0.00  0.00    -0.191 NA
ATOM      7  C   UNL d   1       3.592  -0.955  -0.440  0.00  0.00     0.053 A 
ATOM      8  C   UNL d   1       2.212  -0.932  -0.394  0.00  0.00     0.030 A 
ENDROOT
BRANCH   7   9
ATOM      9  C   UNL d   1       4.356  -1.672   0.567  0.00  0.00     0.250 C 
ATOM     10  N   UNL d   1       5.770  -1.698   0.523  0.00  0.00    -0.366 N 
ATOM     11  H   UNL d   1       6.249  -1.226  -0.196  0.00  0.00     0.159 HD
ATOM     12  H   UNL d   1       6.275  -2.187   1.212  0.00  0.00     0.159 HD
ATOM     13  O   UNL d   1       3.759  -2.276   1.488  0.00  0.00    -0.268 OA
ENDBRANCH   7   9
BRANCH   1  14
ATOM     14  C   UNL d   1       0.003  -0.216  -1.322  0.00  0.00    -0.019 A 
ATOM     15  C   UNL d   1      -0.734   0.058  -0.193  0.00  0.00    -0.038 A 
ATOM     16  C   UNL d   1      -0.043   0.315   1.104  0.00  0.00     0.050 C 
ATOM     17  C   UNL d   1      -2.130   0.107  -0.221  0.00  0.00     0.003 A 
ATOM     18  C   UNL d   1      -2.798  -0.123  -1.403  0.00  0.00     0.056 A 
ATOM     19  C   UNL d   1      -2.076  -0.398  -2.544  0.00  0.00     0.024 A 
ATOM     20  C   UNL d   1      -4.232  -0.062  -1.384  0.00  0.00     0.100 C 
ATOM     21  C   UNL d   1      -0.684  -0.444  -2.501  0.00  0.00     0.014 A 
ATOM     22  N   UNL d   1      -5.386  -0.017  -1.350  0.00  0.00    -0.191 NA
BRANCH  17  23
ATOM     23  C   UNL d   1      -2.857   0.404   1.018  0.00  0.00    -0.000 A 
ATOM     24  C   UNL d   1      -3.255  -0.608   1.867  0.00  0.00     0.056 A 
ATOM     25  C   UNL d   1      -3.939  -0.366   3.040  0.00  0.00     0.117 A 
ATOM     26  F   UNL d   1      -4.330  -1.364   3.875  0.00  0.00    -0.206 F 
ATOM     27  C   UNL d   1      -4.255   0.924   3.407  0.00  0.00     0.044 A 
ATOM     28  C   UNL d   1      -3.869   1.949   2.576  0.00  0.00     0.026 A 
ATOM     29  C   UNL d   1      -3.180   1.692   1.398  0.00  0.00     0.056 A 
ATOM     30  C   UNL d   1      -2.772   2.777   0.521  0.00  0.00     0.100 C 
ATOM     31  N   UNL d   1      -2.443   3.651  -0.161  0.00  0.00    -0.191 NA
ENDBRANCH  17  23
ENDBRANCH   1  14
TORSDOF 3
