
     RDKit          3D

 29 31  0  0  0  0  0  0  0  0999 V2000
   -0.0430    0.3150    1.1039 C   0  0  0  0  0  0  0  0  0  0  0  0
   -0.7338    0.0576   -0.1927 C   0  0  0  0  0  0  0  0  0  0  0  0
    0.0030   -0.2160   -1.3217 C   0  0  0  0  0  0  0  0  0  0  0  0
    1.4577   -0.2756   -1.3130 C   0  0  0  0  0  0  0  0  0  0  0  0
    2.1210    0.3948   -2.3353 C   0  0  0  0  0  0  0  0  0  0  0  0
    3.4922    0.3958   -2.4163 C   0  0  0  0  0  0  0  0  0  0  0  0
    4.2307   -0.2806   -1.4668 C   0  0  0  0  0  0  0  0  0  0  0  0
    5.6599   -0.2584   -1.5822 C   0  0  0  0  0  0  0  0  0  0  0  0
    6.8130   -0.2388   -1.6769 N   0  0  0  0  0  0  0  0  0  0  0  0
    3.5925   -0.9551   -0.4401 C   0  0  0  0  0  0  0  0  0  0  0  0
    4.3562   -1.6716    0.5668 C   0  0  0  0  0  0  0  0  0  0  0  0
    5.7700   -1.6976    0.5232 N   0  0  0  0  0  0  0  0  0  0  0  0
    3.7591   -2.2758    1.4878 O   0  0  0  0  0  0  0  0  0  0  0  0
    2.2116   -0.9317   -0.3943 C   0  0  0  0  0  0  0  0  0  0  0  0
   -0.6843   -0.4438   -2.5006 C   0  0  0  0  0  0  0  0  0  0  0  0
   -2.0762   -0.3981   -2.5443 C   0  0  0  0  0  0  0  0  0  0  0  0
   -2.7982   -0.1226   -1.4031 C   0  0  0  0  0  0  0  0  0  0  0  0
   -4.2318   -0.0618   -1.3843 C   0  0  0  0  0  0  0  0  0  0  0  0
   -5.3863   -0.0169   -1.3496 N   0  0  0  0  0  0  0  0  0  0  0  0
   -2.1298    0.1068   -0.2208 C   0  0  0  0  0  0  0  0  0  0  0  0
   -2.8568    0.4036    1.0178 C   0  0  0  0  0  0  0  0  0  0  0  0
   -3.2545   -0.6081    1.8675 C   0  0  0  0  0  0  0  0  0  0  0  0
   -3.9393   -0.3658    3.0398 C   0  0  0  0  0  0  0  0  0  0  0  0
   -4.3301   -1.3640    3.8753 F   0  0  0  0  0  0  0  0  0  0  0  0
   -4.2545    0.9237    3.4066 C   0  0  0  0  0  0  0  0  0  0  0  0
   -3.8688    1.9493    2.5761 C   0  0  0  0  0  0  0  0  0  0  0  0
   -3.1796    1.6925    1.3982 C   0  0  0  0  0  0  0  0  0  0  0  0
   -2.7721    2.7774    0.5206 C   0  0  0  0  0  0  0  0  0  0  0  0
   -2.4429    3.6513   -0.1612 N   0  0  0  0  0  0  0  0  0  0  0  0
  1  2  1  0
  2  3  2  0
  3  4  1  0
  4  5  2  0
  5  6  1  0
  6  7  2  0
  7  8  1  0
  8  9  3  0
  7 10  1  0
 10 11  1  0
 11 12  1  0
 11 13  2  0
 10 14  2  0
  3 15  1  0
 15 16  2  0
 16 17  1  0
 17 18  1  0
 18 19  3  0
 17 20  2  0
 20 21  1  0
 21 22  2  0
 22 23  1  0
 23 24  1  0
 23 25  2  0
 25 26  1  0
 26 27  2  0
 27 28  1  0
 28 29  3  0
 20  2  1  0
 27 21  1  0
 14  4  1  0
M  END
$$$$
