6OIM_ligand.pdb
 OpenBabel05162315033D

 41 45  0  0  1  0  0  0  0  0999 V2000
   -2.6100   -7.0640   -0.3710 C   0  0  0  0  0  0  0  0  0  0  0  0
   -1.9850   -6.5260   -1.6670 C   0  0  1  0  0  0  0  0  0  0  0  0
   -2.5410   -5.1470   -2.0200 C   0  0  0  0  0  0  0  0  0  0  0  0
   -2.1280   -4.1450   -1.0110 N   0  0  0  0  0  0  0  0  0  0  0  0
   -2.9190   -3.1270   -0.6910 C   0  0  0  0  0  0  0  0  0  0  0  0
   -2.5630   -2.3050    0.1540 O   0  0  0  0  0  0  0  0  0  0  0  0
   -4.2770   -2.9590   -1.3690 C   0  0  0  0  0  0  0  0  0  0  0  0
   -5.3640   -2.1680   -0.6430 C   0  0  0  0  0  0  0  0  0  0  0  0
   -0.8220   -4.2890   -0.3370 C   0  0  0  0  0  0  0  0  0  0  0  0
    0.1210   -5.1600   -1.1490 C   0  0  0  0  0  0  0  0  0  0  0  0
   -0.5160   -6.4570   -1.5220 N   0  0  0  0  0  0  0  0  0  0  0  0
    0.2320   -7.6550   -1.5860 C   0  0  0  0  0  0  0  0  0  0  0  0
   -0.4850   -8.7940   -1.5410 N   0  0  0  0  0  0  0  0  0  0  0  0
    0.0880  -10.0030   -1.5640 C   0  0  0  0  0  0  0  0  0  0  0  0
   -0.6060  -11.0170   -1.5250 O   0  0  0  0  0  0  0  0  0  0  0  0
    1.4680  -10.1120   -1.6350 N   0  0  0  0  0  0  0  0  0  0  0  0
    2.0470  -11.3780   -1.6480 C   0  0  0  0  0  0  0  0  0  0  0  0
    2.3470  -11.9760   -2.8600 C   0  0  0  0  0  0  0  0  0  0  0  0
    2.0370  -11.2480   -4.1650 C   0  0  0  0  0  0  0  0  0  0  0  0
    2.9240  -13.2400   -2.8570 C   0  0  0  0  0  0  0  0  0  0  0  0
    3.1780  -13.8590   -1.6380 C   0  0  0  0  0  0  0  0  0  0  0  0
    2.8820  -13.2670   -0.4920 N   0  0  0  0  0  0  0  0  0  0  0  0
    2.3200  -12.0470   -0.4540 C   0  0  0  0  0  0  0  0  0  0  0  0
    2.0060  -11.4200    0.9130 C   0  0  0  0  0  0  0  0  0  0  0  0
    0.9860  -12.2700    1.6830 C   0  0  0  0  0  0  0  0  0  0  0  0
    3.3030  -11.2870    1.7110 C   0  0  0  0  0  0  0  0  0  0  0  0
    2.2580   -8.9660   -1.6800 C   0  0  0  0  0  0  0  0  0  0  0  0
    3.5950   -9.0860   -1.7440 N   0  0  0  0  0  0  0  0  0  0  0  0
    1.6420   -7.7170   -1.6560 C   0  0  0  0  0  0  0  0  0  0  0  0
    2.4670   -6.5910   -1.7080 C   0  0  0  0  0  0  0  0  0  0  0  0
    3.8540   -6.7420   -1.7820 C   0  0  0  0  0  0  0  0  0  0  0  0
    4.6580   -5.6630   -1.8360 F   0  0  0  0  0  0  0  0  0  0  0  0
    4.4080   -8.0240   -1.7950 C   0  0  0  0  0  0  0  0  0  0  0  0
    5.7890   -8.2170   -1.8650 C   0  0  0  0  0  0  0  0  0  0  0  0
    6.6350   -7.6600   -0.8950 C   0  0  0  0  0  0  0  0  0  0  0  0
    6.1440   -6.9310    0.1290 F   0  0  0  0  0  0  0  0  0  0  0  0
    8.0110   -7.8500   -0.9680 C   0  0  0  0  0  0  0  0  0  0  0  0
    8.5500   -8.6020   -2.0050 C   0  0  0  0  0  0  0  0  0  0  0  0
    7.7190   -9.1620   -2.9660 C   0  0  0  0  0  0  0  0  0  0  0  0
    6.3430   -8.9750   -2.9010 C   0  0  0  0  0  0  0  0  0  0  0  0
    5.5560   -9.5360   -3.8560 O   0  0  0  0  0  0  0  0  0  0  0  0
  2  1  1  1  0  0  0
  2  3  1  0  0  0  0
  2 11  1  0  0  0  0
  3  4  1  0  0  0  0
  4  5  1  0  0  0  0
  4  9  1  0  0  0  0
  5  6  2  0  0  0  0
  5  7  1  0  0  0  0
  7  8  1  0  0  0  0
  9 10  1  0  0  0  0
 10 11  1  0  0  0  0
 11 12  1  0  0  0  0
 12 13  2  0  0  0  0
 12 29  1  0  0  0  0
 13 14  1  0  0  0  0
 14 15  2  0  0  0  0
 14 16  1  0  0  0  0
 16 17  1  0  0  0  0
 16 27  1  0  0  0  0
 17 18  2  0  0  0  0
 17 23  1  0  0  0  0
 18 19  1  0  0  0  0
 18 20  1  0  0  0  0
 20 21  2  0  0  0  0
 21 22  1  0  0  0  0
 22 23  2  0  0  0  0
 23 24  1  0  0  0  0
 24 25  1  0  0  0  0
 24 26  1  0  0  0  0
 27 28  2  0  0  0  0
 27 29  1  0  0  0  0
 28 33  1  0  0  0  0
 29 30  2  0  0  0  0
 30 31  1  0  0  0  0
 31 32  1  0  0  0  0
 31 33  2  0  0  0  0
 33 34  1  0  0  0  0
 34 35  2  0  0  0  0
 34 40  1  0  0  0  0
 35 36  1  0  0  0  0
 35 37  1  0  0  0  0
 37 38  2  0  0  0  0
 38 39  1  0  0  0  0
 39 40  2  0  0  0  0
 40 41  1  0  0  0  0
M  END
$$$$
