MODEL 1
REMARK VINA RESULT:      -7.8      0.000      0.000
REMARK  5 active torsions:
REMARK  status: ('A' for Active; 'I' for Inactive)
REMARK    1  A    between atoms: C_2  and  N_3 
REMARK       I    between atoms: N_3  and  C_4 
REMARK       I    between atoms: C_4  and  N_6 
REMARK       I    between atoms: N_6  and  C_7 
REMARK    2  A    between atoms: C_7  and  C_9 
REMARK    3  A    between atoms: C_16  and  C_17 
REMARK    4  A    between atoms: C_21  and  C_22 
REMARK    5  A    between atoms: C_25  and  C_26 
ROOT
ATOM      1  C   UNL d   1      17.786 -44.094  53.449  0.00  0.00     0.058 A 
ATOM      2  C   UNL d   1      17.778 -43.971  54.938  0.00  0.00     0.047 A 
ATOM      3  C   UNL d   1      17.711 -42.647  55.377  0.00  0.00     0.021 C 
ATOM      4  N   UNL d   1      17.667 -41.410  55.803  0.00  0.00    -0.096 N 
ATOM      5  C   UNL d   1      17.996 -45.039  55.726  0.00  0.00     0.023 A 
ATOM      6  C   UNL d   1      18.245 -46.279  55.214  0.00  0.00     0.002 A 
ATOM      7  C   UNL d   1      18.273 -46.418  53.853  0.00  0.00     0.009 A 
ATOM      8  C   UNL d   1      18.053 -45.335  53.027  0.00  0.00    -0.037 A 
ENDROOT
BRANCH   1   9
ATOM      9  C   UNL d   1      17.371 -42.962  52.814  0.00  0.00     0.261 C 
ATOM     10  N   UNL d   1      15.604 -43.596  52.466  0.00  0.00    -0.275 N 
ATOM     11  C   UNL d   1      15.134 -42.596  51.666  0.00  0.00     0.323 C 
ATOM     12  H   UNL d   1      15.157 -44.415  52.778  0.00  0.00     0.173 HD
ATOM     13  N   UNL d   1      13.919 -43.107  50.916  0.00  0.00    -0.343 N 
ATOM     14  O   UNL d   1      15.399 -41.463  51.390  0.00  0.00    -0.247 OA
ATOM     15  H   UNL d   1      13.615 -44.027  51.092  0.00  0.00     0.164 HD
ATOM     16  O   UNL d   1      17.148 -41.955  52.300  0.00  0.00    -0.267 OA
BRANCH  13  17
ATOM     17  C   UNL d   1      13.207 -42.337  49.987  0.00  0.00     0.120 C 
ATOM     18  C   UNL d   1      13.590 -42.648  48.551  0.00  0.00     0.026 C 
ENDBRANCH  13  17
ENDBRANCH   1   9
BRANCH   8  19
ATOM     19  C   UNL d   1      18.251 -45.498  51.529  0.00  0.00     0.020 C 
ATOM     20  C   UNL d   1      19.300 -44.503  51.034  0.00  0.00     0.009 C 
ATOM     21  C   UNL d   1      20.568 -44.537  51.839  0.00  0.00     0.001 C 
ATOM     22  C   UNL d   1      21.145 -45.930  51.717  0.00  0.00     0.009 C 
ATOM     23  C   UNL d   1      20.188 -46.966  52.210  0.00  0.00     0.019 C 
ATOM     24  C   UNL d   1      18.924 -46.861  51.393  0.00  0.00     0.018 C 
BRANCH  23  25
ATOM     25  C   UNL d   1      20.771 -48.310  52.015  0.00  0.00    -0.053 A 
ATOM     26  C   UNL d   1      22.043 -48.589  51.720  0.00  0.00     0.008 A 
ATOM     27  C   UNL d   1      22.541 -49.879  51.558  0.00  0.00     0.008 A 
ATOM     28  C   UNL d   1      21.711 -50.931  51.705  0.00  0.00    -0.049 A 
ATOM     29  C   UNL d   1      20.330 -50.732  52.026  0.00  0.00    -0.055 A 
ATOM     30  C   UNL d   1      19.419 -51.885  52.145  0.00  0.00     0.049 C 
ATOM     31  C   UNL d   1      19.921 -49.420  52.163  0.00  0.00     0.014 A 
BRANCH  28  32
ATOM     32  C   UNL d   1      22.164 -52.354  51.573  0.00  0.00     0.011 C 
ATOM     33  C   UNL d   1      23.235 -52.542  52.614  0.00  0.00     0.015 C 
ATOM     34  C   UNL d   1      22.731 -52.607  50.212  0.00  0.00     0.015 C 
ENDBRANCH  28  32
ENDBRANCH  23  25
ENDBRANCH   8  19
TORSDOF 5
ENDMDL
MODEL 2
REMARK VINA RESULT:      -6.9      2.341      3.017
REMARK  5 active torsions:
REMARK  status: ('A' for Active; 'I' for Inactive)
REMARK    1  A    between atoms: C_2  and  N_3 
REMARK       I    between atoms: N_3  and  C_4 
REMARK       I    between atoms: C_4  and  N_6 
REMARK       I    between atoms: N_6  and  C_7 
REMARK    2  A    between atoms: C_7  and  C_9 
REMARK    3  A    between atoms: C_16  and  C_17 
REMARK    4  A    between atoms: C_21  and  C_22 
REMARK    5  A    between atoms: C_25  and  C_26 
ROOT
ATOM      1  C   UNL d   1      20.091 -44.678  54.430  0.00  0.00     0.058 A 
ATOM      2  C   UNL d   1      19.375 -44.506  55.730  0.00  0.00     0.047 A 
ATOM      3  C   UNL d   1      17.994 -44.358  55.579  0.00  0.00     0.021 C 
ATOM      4  N   UNL d   1      16.701 -44.200  55.451  0.00  0.00    -0.096 N 
ATOM      5  C   UNL d   1      20.051 -44.337  56.881  0.00  0.00     0.023 A 
ATOM      6  C   UNL d   1      21.414 -44.303  56.922  0.00  0.00     0.002 A 
ATOM      7  C   UNL d   1      22.096 -44.442  55.744  0.00  0.00     0.009 A 
ATOM      8  C   UNL d   1      21.422 -44.615  54.553  0.00  0.00    -0.037 A 
ENDROOT
BRANCH   1   9
ATOM      9  C   UNL d   1      19.264 -45.016  53.402  0.00  0.00     0.261 C 
ATOM     10  N   UNL d   1      19.027 -43.229  52.775  0.00  0.00    -0.275 N 
ATOM     11  C   UNL d   1      18.060 -43.421  51.832  0.00  0.00     0.323 C 
ATOM     12  H   UNL d   1      19.478 -42.399  53.053  0.00  0.00     0.173 HD
ATOM     13  N   UNL d   1      17.408 -42.087  51.528  0.00  0.00    -0.343 N 
ATOM     14  O   UNL d   1      17.588 -44.318  51.196  0.00  0.00    -0.247 OA
ATOM     15  H   UNL d   1      17.743 -41.286  51.994  0.00  0.00     0.164 HD
ATOM     16  O   UNL d   1      18.578 -45.434  52.575  0.00  0.00    -0.267 OA
BRANCH  13  17
ATOM     17  C   UNL d   1      16.354 -41.934  50.617  0.00  0.00     0.120 C 
ATOM     18  C   UNL d   1      15.003 -41.809  51.299  0.00  0.00     0.026 C 
ENDBRANCH  13  17
ENDBRANCH   1   9
BRANCH   8  19
ATOM     19  C   UNL d   1      22.208 -44.605  53.252  0.00  0.00     0.020 C 
ATOM     20  C   UNL d   1      23.702 -44.489  53.550  0.00  0.00     0.009 C 
ATOM     21  C   UNL d   1      24.179 -45.493  54.560  0.00  0.00     0.001 C 
ATOM     22  C   UNL d   1      23.917 -46.870  53.990  0.00  0.00     0.009 C 
ATOM     23  C   UNL d   1      22.466 -47.076  53.696  0.00  0.00     0.019 C 
ATOM     24  C   UNL d   1      22.036 -46.021  52.708  0.00  0.00     0.018 C 
BRANCH  23  25
ATOM     25  C   UNL d   1      22.270 -48.409  53.086  0.00  0.00    -0.053 A 
ATOM     26  C   UNL d   1      23.196 -49.361  52.944  0.00  0.00     0.008 A 
ATOM     27  C   UNL d   1      22.951 -50.605  52.369  0.00  0.00     0.008 A 
ATOM     28  C   UNL d   1      21.712 -50.896  51.923  0.00  0.00    -0.049 A 
ATOM     29  C   UNL d   1      20.653 -49.939  52.036  0.00  0.00    -0.055 A 
ATOM     30  C   UNL d   1      19.311 -50.247  51.510  0.00  0.00     0.049 C 
ATOM     31  C   UNL d   1      20.986 -48.729  52.614  0.00  0.00     0.014 A 
BRANCH  28  32
ATOM     32  C   UNL d   1      21.352 -52.217  51.314  0.00  0.00     0.011 C 
ATOM     33  C   UNL d   1      21.142 -53.159  52.470  0.00  0.00     0.015 C 
ATOM     34  C   UNL d   1      22.459 -52.721  50.445  0.00  0.00     0.015 C 
ENDBRANCH  28  32
ENDBRANCH  23  25
ENDBRANCH   8  19
TORSDOF 5
ENDMDL
MODEL 3
REMARK VINA RESULT:      -6.6      4.529      6.633
REMARK  5 active torsions:
REMARK  status: ('A' for Active; 'I' for Inactive)
REMARK    1  A    between atoms: C_2  and  N_3 
REMARK       I    between atoms: N_3  and  C_4 
REMARK       I    between atoms: C_4  and  N_6 
REMARK       I    between atoms: N_6  and  C_7 
REMARK    2  A    between atoms: C_7  and  C_9 
REMARK    3  A    between atoms: C_16  and  C_17 
REMARK    4  A    between atoms: C_21  and  C_22 
REMARK    5  A    between atoms: C_25  and  C_26 
ROOT
ATOM      1  C   UNL d   1      19.858 -46.377  52.537  0.00  0.00     0.058 A 
ATOM      2  C   UNL d   1      20.038 -47.617  51.723  0.00  0.00     0.047 A 
ATOM      3  C   UNL d   1      18.897 -48.422  51.694  0.00  0.00     0.021 C 
ATOM      4  N   UNL d   1      17.841 -49.195  51.672  0.00  0.00    -0.096 N 
ATOM      5  C   UNL d   1      21.244 -47.964  51.240  0.00  0.00     0.023 A 
ATOM      6  C   UNL d   1      22.361 -47.216  51.474  0.00  0.00     0.002 A 
ATOM      7  C   UNL d   1      22.229 -46.083  52.229  0.00  0.00     0.009 A 
ATOM      8  C   UNL d   1      21.001 -45.710  52.735  0.00  0.00    -0.037 A 
ENDROOT
BRANCH   1   9
ATOM      9  C   UNL d   1      18.552 -46.085  52.789  0.00  0.00     0.261 C 
ATOM     10  N   UNL d   1      18.372 -44.842  51.353  0.00  0.00    -0.275 N 
ATOM     11  C   UNL d   1      17.130 -44.340  51.611  0.00  0.00     0.323 C 
ATOM     12  H   UNL d   1      18.999 -44.624  50.626  0.00  0.00     0.173 HD
ATOM     13  N   UNL d   1      16.971 -43.030  50.864  0.00  0.00    -0.343 N 
ATOM     14  O   UNL d   1      16.156 -44.627  52.244  0.00  0.00    -0.247 OA
ATOM     15  H   UNL d   1      17.718 -42.720  50.302  0.00  0.00     0.164 HD
ATOM     16  O   UNL d   1      17.455 -45.927  53.109  0.00  0.00    -0.267 OA
BRANCH  13  17
ATOM     17  C   UNL d   1      15.817 -42.238  50.932  0.00  0.00     0.120 C 
ATOM     18  C   UNL d   1      16.089 -40.851  51.486  0.00  0.00     0.026 C 
ENDBRANCH  13  17
ENDBRANCH   1   9
BRANCH   8  19
ATOM     19  C   UNL d   1      20.925 -44.537  53.699  0.00  0.00     0.020 C 
ATOM     20  C   UNL d   1      20.482 -45.027  55.077  0.00  0.00     0.009 C 
ATOM     21  C   UNL d   1      21.289 -46.193  55.573  0.00  0.00     0.001 C 
ATOM     22  C   UNL d   1      22.728 -45.737  55.676  0.00  0.00     0.009 C 
ATOM     23  C   UNL d   1      23.250 -45.267  54.356  0.00  0.00     0.019 C 
ATOM     24  C   UNL d   1      22.382 -44.125  53.891  0.00  0.00     0.018 C 
BRANCH  23  25
ATOM     25  C   UNL d   1      24.635 -44.778  54.519  0.00  0.00    -0.053 A 
ATOM     26  C   UNL d   1      25.465 -45.063  55.526  0.00  0.00     0.008 A 
ATOM     27  C   UNL d   1      26.768 -44.581  55.623  0.00  0.00     0.008 A 
ATOM     28  C   UNL d   1      27.249 -43.777  54.653  0.00  0.00    -0.049 A 
ATOM     29  C   UNL d   1      26.434 -43.418  53.532  0.00  0.00    -0.055 A 
ATOM     30  C   UNL d   1      26.952 -42.506  52.497  0.00  0.00     0.049 C 
ATOM     31  C   UNL d   1      25.154 -43.937  53.520  0.00  0.00     0.014 A 
BRANCH  28  32
ATOM     32  C   UNL d   1      28.645 -43.231  54.662  0.00  0.00     0.011 C 
ATOM     33  C   UNL d   1      29.546 -44.412  54.905  0.00  0.00     0.015 C 
ATOM     34  C   UNL d   1      28.817 -42.229  55.759  0.00  0.00     0.015 C 
ENDBRANCH  28  32
ENDBRANCH  23  25
ENDBRANCH   8  19
TORSDOF 5
ENDMDL
MODEL 4
REMARK VINA RESULT:      -6.4      3.337      4.836
REMARK  5 active torsions:
REMARK  status: ('A' for Active; 'I' for Inactive)
REMARK    1  A    between atoms: C_2  and  N_3 
REMARK       I    between atoms: N_3  and  C_4 
REMARK       I    between atoms: C_4  and  N_6 
REMARK       I    between atoms: N_6  and  C_7 
REMARK    2  A    between atoms: C_7  and  C_9 
REMARK    3  A    between atoms: C_16  and  C_17 
REMARK    4  A    between atoms: C_21  and  C_22 
REMARK    5  A    between atoms: C_25  and  C_26 
ROOT
ATOM      1  C   UNL d   1      17.474 -43.347  52.876  0.00  0.00     0.058 A 
ATOM      2  C   UNL d   1      17.590 -41.934  52.405  0.00  0.00     0.047 A 
ATOM      3  C   UNL d   1      16.582 -41.572  51.508  0.00  0.00     0.021 C 
ATOM      4  N   UNL d   1      15.654 -41.225  50.653  0.00  0.00    -0.096 N 
ATOM      5  C   UNL d   1      18.668 -41.187  52.702  0.00  0.00     0.023 A 
ATOM      6  C   UNL d   1      19.711 -41.678  53.432  0.00  0.00     0.002 A 
ATOM      7  C   UNL d   1      19.639 -42.975  53.863  0.00  0.00     0.009 A 
ATOM      8  C   UNL d   1      18.543 -43.758  53.569  0.00  0.00    -0.037 A 
ENDROOT
BRANCH   1   9
ATOM      9  C   UNL d   1      16.248 -43.892  52.643  0.00  0.00     0.261 C 
ATOM     10  N   UNL d   1      15.483 -43.311  54.292  0.00  0.00    -0.275 N 
ATOM     11  C   UNL d   1      14.282 -43.957  54.252  0.00  0.00     0.323 C 
ATOM     12  H   UNL d   1      15.851 -42.711  54.979  0.00  0.00     0.173 HD
ATOM     13  N   UNL d   1      13.705 -43.995  55.653  0.00  0.00    -0.343 N 
ATOM     14  O   UNL d   1      13.573 -44.492  53.450  0.00  0.00    -0.247 OA
ATOM     15  H   UNL d   1      14.213 -43.564  56.379  0.00  0.00     0.164 HD
ATOM     16  O   UNL d   1      15.262 -44.399  52.325  0.00  0.00    -0.267 OA
BRANCH  13  17
ATOM     17  C   UNL d   1      12.487 -44.611  55.969  0.00  0.00     0.120 C 
ATOM     18  C   UNL d   1      12.668 -45.990  56.579  0.00  0.00     0.026 C 
ENDBRANCH  13  17
ENDBRANCH   1   9
BRANCH   8  19
ATOM     19  C   UNL d   1      18.573 -45.235  53.928  0.00  0.00     0.020 C 
ATOM     20  C   UNL d   1      18.315 -46.076  52.679  0.00  0.00     0.009 C 
ATOM     21  C   UNL d   1      19.195 -45.696  51.523  0.00  0.00     0.001 C 
ATOM     22  C   UNL d   1      20.630 -45.917  51.953  0.00  0.00     0.009 C 
ATOM     23  C   UNL d   1      20.973 -45.103  53.158  0.00  0.00     0.019 C 
ATOM     24  C   UNL d   1      20.036 -45.499  54.272  0.00  0.00     0.018 C 
BRANCH  23  25
ATOM     25  C   UNL d   1      22.360 -45.397  53.574  0.00  0.00    -0.053 A 
ATOM     26  C   UNL d   1      23.243 -44.525  54.070  0.00  0.00     0.008 A 
ATOM     27  C   UNL d   1      24.537 -44.862  54.456  0.00  0.00     0.008 A 
ATOM     28  C   UNL d   1      24.952 -46.139  54.337  0.00  0.00    -0.049 A 
ATOM     29  C   UNL d   1      24.075 -47.146  53.820  0.00  0.00    -0.055 A 
ATOM     30  C   UNL d   1      24.547 -48.532  53.654  0.00  0.00     0.049 C 
ATOM     31  C   UNL d   1      22.812 -46.723  53.457  0.00  0.00     0.014 A 
BRANCH  28  32
ATOM     32  C   UNL d   1      26.318 -46.597  54.750  0.00  0.00     0.011 C 
ATOM     33  C   UNL d   1      26.335 -46.533  56.254  0.00  0.00     0.015 C 
ATOM     34  C   UNL d   1      27.372 -45.694  54.193  0.00  0.00     0.015 C 
ENDBRANCH  28  32
ENDBRANCH  23  25
ENDBRANCH   8  19
TORSDOF 5
ENDMDL
MODEL 5
REMARK VINA RESULT:      -6.3      2.271      4.897
REMARK  5 active torsions:
REMARK  status: ('A' for Active; 'I' for Inactive)
REMARK    1  A    between atoms: C_2  and  N_3 
REMARK       I    between atoms: N_3  and  C_4 
REMARK       I    between atoms: C_4  and  N_6 
REMARK       I    between atoms: N_6  and  C_7 
REMARK    2  A    between atoms: C_7  and  C_9 
REMARK    3  A    between atoms: C_16  and  C_17 
REMARK    4  A    between atoms: C_21  and  C_22 
REMARK    5  A    between atoms: C_25  and  C_26 
ROOT
ATOM      1  C   UNL d   1      14.601 -43.228  54.687  0.00  0.00     0.058 A 
ATOM      2  C   UNL d   1      13.259 -43.546  54.113  0.00  0.00     0.047 A 
ATOM      3  C   UNL d   1      12.888 -42.685  53.078  0.00  0.00     0.021 C 
ATOM      4  N   UNL d   1      12.520 -41.875  52.118  0.00  0.00    -0.096 N 
ATOM      5  C   UNL d   1      12.454 -44.459  54.687  0.00  0.00     0.023 A 
ATOM      6  C   UNL d   1      12.813 -45.129  55.820  0.00  0.00     0.002 A 
ATOM      7  C   UNL d   1      14.031 -44.847  56.376  0.00  0.00     0.009 A 
ATOM      8  C   UNL d   1      14.870 -43.914  55.804  0.00  0.00    -0.037 A 
ENDROOT
BRANCH   1   9
ATOM      9  C   UNL d   1      15.350 -42.421  53.885  0.00  0.00     0.261 C 
ATOM     10  N   UNL d   1      15.913 -43.817  52.712  0.00  0.00    -0.275 N 
ATOM     11  C   UNL d   1      16.827 -43.150  51.950  0.00  0.00     0.323 C 
ATOM     12  H   UNL d   1      15.623 -44.757  52.667  0.00  0.00     0.173 HD
ATOM     13  N   UNL d   1      17.714 -44.166  51.257  0.00  0.00    -0.343 N 
ATOM     14  O   UNL d   1      17.124 -42.023  51.681  0.00  0.00    -0.247 OA
ATOM     15  H   UNL d   1      17.533 -45.123  51.406  0.00  0.00     0.164 HD
ATOM     16  O   UNL d   1      15.946 -41.634  53.290  0.00  0.00    -0.267 OA
BRANCH  13  17
ATOM     17  C   UNL d   1      18.777 -43.813  50.414  0.00  0.00     0.120 C 
ATOM     18  C   UNL d   1      20.130 -44.199  50.986  0.00  0.00     0.026 C 
ENDBRANCH  13  17
ENDBRANCH   1   9
BRANCH   8  19
ATOM     19  C   UNL d   1      16.139 -43.514  56.539  0.00  0.00     0.020 C 
ATOM     20  C   UNL d   1      16.203 -44.227  57.888  0.00  0.00     0.009 C 
ATOM     21  C   UNL d   1      15.984 -45.709  57.781  0.00  0.00     0.001 C 
ATOM     22  C   UNL d   1      17.082 -46.267  56.900  0.00  0.00     0.009 C 
ATOM     23  C   UNL d   1      17.070 -45.638  55.544  0.00  0.00     0.019 C 
ATOM     24  C   UNL d   1      17.256 -44.152  55.716  0.00  0.00     0.018 C 
BRANCH  23  25
ATOM     25  C   UNL d   1      18.193 -46.170  54.744  0.00  0.00    -0.053 A 
ATOM     26  C   UNL d   1      19.487 -46.140  55.073  0.00  0.00     0.008 A 
ATOM     27  C   UNL d   1      20.505 -46.667  54.283  0.00  0.00     0.008 A 
ATOM     28  C   UNL d   1      20.194 -47.252  53.109  0.00  0.00    -0.049 A 
ATOM     29  C   UNL d   1      18.834 -47.335  52.672  0.00  0.00    -0.055 A 
ATOM     30  C   UNL d   1      18.504 -47.939  51.369  0.00  0.00     0.049 C 
ATOM     31  C   UNL d   1      17.890 -46.782  53.516  0.00  0.00     0.014 A 
BRANCH  28  32
ATOM     32  C   UNL d   1      21.221 -47.867  52.206  0.00  0.00     0.011 C 
ATOM     33  C   UNL d   1      21.634 -49.153  52.869  0.00  0.00     0.015 C 
ATOM     34  C   UNL d   1      22.407 -46.968  52.060  0.00  0.00     0.015 C 
ENDBRANCH  28  32
ENDBRANCH  23  25
ENDBRANCH   8  19
TORSDOF 5
ENDMDL
MODEL 6
REMARK VINA RESULT:      -6.3      3.017      5.311
REMARK  5 active torsions:
REMARK  status: ('A' for Active; 'I' for Inactive)
REMARK    1  A    between atoms: C_2  and  N_3 
REMARK       I    between atoms: N_3  and  C_4 
REMARK       I    between atoms: C_4  and  N_6 
REMARK       I    between atoms: N_6  and  C_7 
REMARK    2  A    between atoms: C_7  and  C_9 
REMARK    3  A    between atoms: C_16  and  C_17 
REMARK    4  A    between atoms: C_21  and  C_22 
REMARK    5  A    between atoms: C_25  and  C_26 
ROOT
ATOM      1  C   UNL d   1      19.317 -43.743  54.469  0.00  0.00     0.058 A 
ATOM      2  C   UNL d   1      20.310 -42.632  54.352  0.00  0.00     0.047 A 
ATOM      3  C   UNL d   1      21.243 -42.621  55.391  0.00  0.00     0.021 C 
ATOM      4  N   UNL d   1      22.113 -42.587  56.368  0.00  0.00    -0.096 N 
ATOM      5  C   UNL d   1      20.168 -41.666  53.427  0.00  0.00     0.023 A 
ATOM      6  C   UNL d   1      19.113 -41.642  52.561  0.00  0.00     0.002 A 
ATOM      7  C   UNL d   1      18.181 -42.639  52.655  0.00  0.00     0.009 A 
ATOM      8  C   UNL d   1      18.307 -43.638  53.597  0.00  0.00    -0.037 A 
ENDROOT
BRANCH   1   9
ATOM      9  C   UNL d   1      19.709 -44.724  55.329  0.00  0.00     0.261 C 
ATOM     10  N   UNL d   1      18.619 -44.130  56.779  0.00  0.00    -0.275 N 
ATOM     11  C   UNL d   1      19.063 -44.948  57.776  0.00  0.00     0.323 C 
ATOM     12  H   UNL d   1      17.929 -43.429  56.801  0.00  0.00     0.173 HD
ATOM     13  N   UNL d   1      18.657 -44.350  59.109  0.00  0.00    -0.343 N 
ATOM     14  O   UNL d   1      19.667 -45.973  57.899  0.00  0.00    -0.247 OA
ATOM     15  H   UNL d   1      18.140 -43.512  59.107  0.00  0.00     0.164 HD
ATOM     16  O   UNL d   1      20.122 -45.601  55.954  0.00  0.00    -0.267 OA
BRANCH  13  17
ATOM     17  C   UNL d   1      18.979 -44.930  60.344  0.00  0.00     0.120 C 
ATOM     18  C   UNL d   1      19.956 -44.091  61.149  0.00  0.00     0.026 C 
ENDBRANCH  13  17
ENDBRANCH   1   9
BRANCH   8  19
ATOM     19  C   UNL d   1      17.172 -44.633  53.776  0.00  0.00     0.020 C 
ATOM     20  C   UNL d   1      16.211 -44.540  52.591  0.00  0.00     0.009 C 
ATOM     21  C   UNL d   1      16.908 -44.618  51.263  0.00  0.00     0.001 C 
ATOM     22  C   UNL d   1      17.609 -45.958  51.197  0.00  0.00     0.009 C 
ATOM     23  C   UNL d   1      18.593 -46.117  52.311  0.00  0.00     0.019 C 
ATOM     24  C   UNL d   1      17.846 -45.993  53.615  0.00  0.00     0.018 C 
BRANCH  23  25
ATOM     25  C   UNL d   1      19.207 -47.460  52.239  0.00  0.00    -0.053 A 
ATOM     26  C   UNL d   1      18.662 -48.555  51.702  0.00  0.00     0.008 A 
ATOM     27  C   UNL d   1      19.293 -49.795  51.653  0.00  0.00     0.008 A 
ATOM     28  C   UNL d   1      20.531 -49.928  52.169  0.00  0.00    -0.049 A 
ATOM     29  C   UNL d   1      21.198 -48.809  52.763  0.00  0.00    -0.055 A 
ATOM     30  C   UNL d   1      22.535 -48.971  53.362  0.00  0.00     0.049 C 
ATOM     31  C   UNL d   1      20.497 -47.619  52.773  0.00  0.00     0.014 A 
BRANCH  28  32
ATOM     32  C   UNL d   1      21.295 -51.217  52.139  0.00  0.00     0.011 C 
ATOM     33  C   UNL d   1      22.127 -51.173  50.885  0.00  0.00     0.015 C 
ATOM     34  C   UNL d   1      20.363 -52.386  52.087  0.00  0.00     0.015 C 
ENDBRANCH  28  32
ENDBRANCH  23  25
ENDBRANCH   8  19
TORSDOF 5
ENDMDL
MODEL 7
REMARK VINA RESULT:      -6.2      2.114      2.669
REMARK  5 active torsions:
REMARK  status: ('A' for Active; 'I' for Inactive)
REMARK    1  A    between atoms: C_2  and  N_3 
REMARK       I    between atoms: N_3  and  C_4 
REMARK       I    between atoms: C_4  and  N_6 
REMARK       I    between atoms: N_6  and  C_7 
REMARK    2  A    between atoms: C_7  and  C_9 
REMARK    3  A    between atoms: C_16  and  C_17 
REMARK    4  A    between atoms: C_21  and  C_22 
REMARK    5  A    between atoms: C_25  and  C_26 
ROOT
ATOM      1  C   UNL d   1      19.795 -43.975  55.668  0.00  0.00     0.058 A 
ATOM      2  C   UNL d   1      19.735 -44.242  57.137  0.00  0.00     0.047 A 
ATOM      3  C   UNL d   1      19.730 -43.076  57.906  0.00  0.00     0.021 C 
ATOM      4  N   UNL d   1      19.743 -41.992  58.639  0.00  0.00    -0.096 N 
ATOM      5  C   UNL d   1      19.858 -45.490  57.624  0.00  0.00     0.023 A 
ATOM      6  C   UNL d   1      20.053 -46.568  56.810  0.00  0.00     0.002 A 
ATOM      7  C   UNL d   1      20.127 -46.352  55.462  0.00  0.00     0.009 A 
ATOM      8  C   UNL d   1      20.005 -45.079  54.942  0.00  0.00    -0.037 A 
ENDROOT
BRANCH   1   9
ATOM      9  C   UNL d   1      19.474 -42.692  55.342  0.00  0.00     0.261 C 
ATOM     10  N   UNL d   1      17.685 -43.091  54.809  0.00  0.00    -0.275 N 
ATOM     11  C   UNL d   1      17.306 -41.888  54.288  0.00  0.00     0.323 C 
ATOM     12  H   UNL d   1      17.177 -43.929  54.889  0.00  0.00     0.173 HD
ATOM     13  N   UNL d   1      16.090 -42.103  53.409  0.00  0.00    -0.343 N 
ATOM     14  O   UNL d   1      17.651 -40.743  54.321  0.00  0.00    -0.247 OA
ATOM     15  H   UNL d   1      15.723 -43.015  53.333  0.00  0.00     0.164 HD
ATOM     16  O   UNL d   1      19.332 -41.573  55.104  0.00  0.00    -0.267 OA
BRANCH  13  17
ATOM     17  C   UNL d   1      15.460 -41.072  52.699  0.00  0.00     0.120 C 
ATOM     18  C   UNL d   1      13.948 -41.099  52.845  0.00  0.00     0.026 C 
ENDBRANCH  13  17
ENDBRANCH   1   9
BRANCH   8  19
ATOM     19  C   UNL d   1      20.252 -44.861  53.459  0.00  0.00     0.020 C 
ATOM     20  C   UNL d   1      21.615 -44.200  53.253  0.00  0.00     0.009 C 
ATOM     21  C   UNL d   1      22.725 -44.908  53.974  0.00  0.00     0.001 C 
ATOM     22  C   UNL d   1      22.797 -46.317  53.425  0.00  0.00     0.009 C 
ATOM     23  C   UNL d   1      21.506 -47.046  53.615  0.00  0.00     0.019 C 
ATOM     24  C   UNL d   1      20.424 -46.272  52.903  0.00  0.00     0.018 C 
BRANCH  23  25
ATOM     25  C   UNL d   1      21.605 -48.391  53.011  0.00  0.00    -0.053 A 
ATOM     26  C   UNL d   1      22.711 -49.131  52.896  0.00  0.00     0.008 A 
ATOM     27  C   UNL d   1      22.743 -50.400  52.326  0.00  0.00     0.008 A 
ATOM     28  C   UNL d   1      21.603 -50.943  51.855  0.00  0.00    -0.049 A 
ATOM     29  C   UNL d   1      20.366 -50.228  51.938  0.00  0.00    -0.055 A 
ATOM     30  C   UNL d   1      19.130 -50.810  51.384  0.00  0.00     0.049 C 
ATOM     31  C   UNL d   1      20.426 -48.974  52.513  0.00  0.00     0.014 A 
BRANCH  28  32
ATOM     32  C   UNL d   1      21.539 -52.313  51.249  0.00  0.00     0.011 C 
ATOM     33  C   UNL d   1      21.645 -53.277  52.399  0.00  0.00     0.015 C 
ATOM     34  C   UNL d   1      22.677 -52.527  50.302  0.00  0.00     0.015 C 
ENDBRANCH  28  32
ENDBRANCH  23  25
ENDBRANCH   8  19
TORSDOF 5
ENDMDL
MODEL 8
REMARK VINA RESULT:      -6.2      4.134      6.642
REMARK  5 active torsions:
REMARK  status: ('A' for Active; 'I' for Inactive)
REMARK    1  A    between atoms: C_2  and  N_3 
REMARK       I    between atoms: N_3  and  C_4 
REMARK       I    between atoms: C_4  and  N_6 
REMARK       I    between atoms: N_6  and  C_7 
REMARK    2  A    between atoms: C_7  and  C_9 
REMARK    3  A    between atoms: C_16  and  C_17 
REMARK    4  A    between atoms: C_21  and  C_22 
REMARK    5  A    between atoms: C_25  and  C_26 
ROOT
ATOM      1  C   UNL d   1      19.044 -44.054  53.654  0.00  0.00     0.058 A 
ATOM      2  C   UNL d   1      18.571 -42.888  52.849  0.00  0.00     0.047 A 
ATOM      3  C   UNL d   1      18.059 -41.852  53.634  0.00  0.00     0.021 C 
ATOM      4  N   UNL d   1      17.560 -40.881  54.356  0.00  0.00    -0.096 N 
ATOM      5  C   UNL d   1      18.501 -42.950  51.507  0.00  0.00     0.023 A 
ATOM      6  C   UNL d   1      18.843 -44.076  50.816  0.00  0.00     0.002 A 
ATOM      7  C   UNL d   1      19.265 -45.165  51.529  0.00  0.00     0.009 A 
ATOM      8  C   UNL d   1      19.343 -45.122  52.905  0.00  0.00    -0.037 A 
ENDROOT
BRANCH   1   9
ATOM      9  C   UNL d   1      19.224 -43.759  54.972  0.00  0.00     0.261 C 
ATOM     10  N   UNL d   1      20.938 -42.953  54.737  0.00  0.00    -0.275 N 
ATOM     11  C   UNL d   1      21.307 -42.767  56.037  0.00  0.00     0.323 C 
ATOM     12  H   UNL d   1      21.421 -42.731  53.909  0.00  0.00     0.173 HD
ATOM     13  N   UNL d   1      22.807 -42.555  56.089  0.00  0.00    -0.343 N 
ATOM     14  O   UNL d   1      20.801 -42.729  57.120  0.00  0.00    -0.247 OA
ATOM     15  H   UNL d   1      23.309 -42.555  55.241  0.00  0.00     0.164 HD
ATOM     16  O   UNL d   1      19.252 -43.568  56.109  0.00  0.00    -0.267 OA
BRANCH  13  17
ATOM     17  C   UNL d   1      23.517 -42.359  57.281  0.00  0.00     0.120 C 
ATOM     18  C   UNL d   1      24.643 -43.362  57.465  0.00  0.00     0.026 C 
ENDBRANCH  13  17
ENDBRANCH   1   9
BRANCH   8  19
ATOM     19  C   UNL d   1      19.661 -46.398  53.668  0.00  0.00     0.020 C 
ATOM     20  C   UNL d   1      19.730 -47.576  52.698  0.00  0.00     0.009 C 
ATOM     21  C   UNL d   1      20.622 -47.315  51.518  0.00  0.00     0.001 C 
ATOM     22  C   UNL d   1      22.015 -47.060  52.050  0.00  0.00     0.009 C 
ATOM     23  C   UNL d   1      22.040 -45.898  52.989  0.00  0.00     0.019 C 
ATOM     24  C   UNL d   1      21.102 -46.200  54.131  0.00  0.00     0.018 C 
BRANCH  23  25
ATOM     25  C   UNL d   1      23.406 -45.726  53.527  0.00  0.00    -0.053 A 
ATOM     26  C   UNL d   1      24.158 -46.669  54.101  0.00  0.00     0.008 A 
ATOM     27  C   UNL d   1      25.446 -46.453  54.582  0.00  0.00     0.008 A 
ATOM     28  C   UNL d   1      25.996 -45.227  54.472  0.00  0.00    -0.049 A 
ATOM     29  C   UNL d   1      25.268 -44.153  53.867  0.00  0.00    -0.055 A 
ATOM     30  C   UNL d   1      25.859 -42.805  53.787  0.00  0.00     0.049 C 
ATOM     31  C   UNL d   1      23.996 -44.455  53.423  0.00  0.00     0.014 A 
BRANCH  28  32
ATOM     32  C   UNL d   1      27.385 -44.909  54.939  0.00  0.00     0.011 C 
ATOM     33  C   UNL d   1      28.311 -45.560  53.947  0.00  0.00     0.015 C 
ATOM     34  C   UNL d   1      27.627 -45.470  56.304  0.00  0.00     0.015 C 
ENDBRANCH  28  32
ENDBRANCH  23  25
ENDBRANCH   8  19
TORSDOF 5
ENDMDL
MODEL 9
REMARK VINA RESULT:      -6.1     10.371     13.537
REMARK  5 active torsions:
REMARK  status: ('A' for Active; 'I' for Inactive)
REMARK    1  A    between atoms: C_2  and  N_3 
REMARK       I    between atoms: N_3  and  C_4 
REMARK       I    between atoms: C_4  and  N_6 
REMARK       I    between atoms: N_6  and  C_7 
REMARK    2  A    between atoms: C_7  and  C_9 
REMARK    3  A    between atoms: C_16  and  C_17 
REMARK    4  A    between atoms: C_21  and  C_22 
REMARK    5  A    between atoms: C_25  and  C_26 
ROOT
ATOM      1  C   UNL d   1      29.843 -50.645  54.491  0.00  0.00     0.058 A 
ATOM      2  C   UNL d   1      31.304 -50.910  54.322  0.00  0.00     0.047 A 
ATOM      3  C   UNL d   1      31.764 -51.965  55.115  0.00  0.00     0.021 C 
ATOM      4  N   UNL d   1      32.212 -52.939  55.864  0.00  0.00    -0.096 N 
ATOM      5  C   UNL d   1      32.085 -50.080  53.608  0.00  0.00     0.023 A 
ATOM      6  C   UNL d   1      31.592 -48.953  53.016  0.00  0.00     0.002 A 
ATOM      7  C   UNL d   1      30.261 -48.677  53.166  0.00  0.00     0.009 A 
ATOM      8  C   UNL d   1      29.443 -49.516  53.895  0.00  0.00    -0.037 A 
ENDROOT
BRANCH   1   9
ATOM      9  C   UNL d   1      29.176 -51.673  55.084  0.00  0.00     0.261 C 
ATOM     10  N   UNL d   1      28.504 -52.407  53.455  0.00  0.00    -0.275 N 
ATOM     11  C   UNL d   1      27.660 -53.362  53.940  0.00  0.00     0.323 C 
ATOM     12  H   UNL d   1      28.711 -52.165  52.524  0.00  0.00     0.173 HD
ATOM     13  N   UNL d   1      26.694 -53.759  52.841  0.00  0.00    -0.343 N 
ATOM     14  O   UNL d   1      27.465 -53.959  54.959  0.00  0.00    -0.247 OA
ATOM     15  H   UNL d   1      26.789 -53.331  51.959  0.00  0.00     0.164 HD
ATOM     16  O   UNL d   1      28.657 -52.493  55.707  0.00  0.00    -0.267 OA
BRANCH  13  17
ATOM     17  C   UNL d   1      25.675 -54.705  53.016  0.00  0.00     0.120 C 
ATOM     18  C   UNL d   1      24.473 -54.141  53.754  0.00  0.00     0.026 C 
ENDBRANCH  13  17
ENDBRANCH   1   9
BRANCH   8  19
ATOM     19  C   UNL d   1      28.010 -49.091  54.173  0.00  0.00     0.020 C 
ATOM     20  C   UNL d   1      27.733 -49.154  55.674  0.00  0.00     0.009 C 
ATOM     21  C   UNL d   1      28.768 -48.436  56.493  0.00  0.00     0.001 C 
ATOM     22  C   UNL d   1      28.751 -46.983  56.072  0.00  0.00     0.009 C 
ATOM     23  C   UNL d   1      29.044 -46.831  54.614  0.00  0.00     0.019 C 
ATOM     24  C   UNL d   1      27.999 -47.600  53.845  0.00  0.00     0.018 C 
BRANCH  23  25
ATOM     25  C   UNL d   1      28.957 -45.404  54.239  0.00  0.00    -0.053 A 
ATOM     26  C   UNL d   1      28.767 -44.915  53.010  0.00  0.00     0.008 A 
ATOM     27  C   UNL d   1      28.683 -43.557  52.717  0.00  0.00     0.008 A 
ATOM     28  C   UNL d   1      28.794 -42.657  53.713  0.00  0.00    -0.049 A 
ATOM     29  C   UNL d   1      28.997 -43.085  55.064  0.00  0.00    -0.055 A 
ATOM     30  C   UNL d   1      29.159 -42.095  56.144  0.00  0.00     0.049 C 
ATOM     31  C   UNL d   1      29.073 -44.450  55.264  0.00  0.00     0.014 A 
BRANCH  28  32
ATOM     32  C   UNL d   1      28.692 -41.177  53.493  0.00  0.00     0.011 C 
ATOM     33  C   UNL d   1      27.252 -40.912  53.144  0.00  0.00     0.015 C 
ATOM     34  C   UNL d   1      29.575 -40.746  52.366  0.00  0.00     0.015 C 
ENDBRANCH  28  32
ENDBRANCH  23  25
ENDBRANCH   8  19
TORSDOF 5
ENDMDL
