REMARK  5 active torsions:
REMARK  status: ('A' for Active; 'I' for Inactive)
REMARK    1  A    between atoms: C_2  and  N_3 
REMARK       I    between atoms: N_3  and  C_4 
REMARK       I    between atoms: C_4  and  N_6 
REMARK       I    between atoms: N_6  and  C_7 
REMARK    2  A    between atoms: C_7  and  C_9 
REMARK    3  A    between atoms: C_16  and  C_17 
REMARK    4  A    between atoms: C_21  and  C_22 
REMARK    5  A    between atoms: C_25  and  C_26 
ROOT
ATOM      1  C   UNL d   1       2.350  -1.836  -0.039  0.00  0.00     0.058 A 
ATOM      2  C   UNL d   1       2.245  -3.191   0.582  0.00  0.00     0.047 A 
ATOM      3  C   UNL d   1       2.875  -4.187  -0.168  0.00  0.00     0.021 C 
ATOM      4  N   UNL d   1       3.446  -5.133  -0.869  0.00  0.00    -0.096 N 
ATOM      5  C   UNL d   1       1.463  -3.407   1.655  0.00  0.00     0.023 A 
ATOM      6  C   UNL d   1       0.721  -2.412   2.222  0.00  0.00     0.002 A 
ATOM      7  C   UNL d   1       0.786  -1.164   1.665  0.00  0.00     0.009 A 
ATOM      8  C   UNL d   1       1.581  -0.922   0.564  0.00  0.00    -0.037 A 
ENDROOT
BRANCH   1   9
ATOM      9  C   UNL d   1       3.317  -1.757  -0.995  0.00  0.00     0.261 C 
ATOM     10  N   UNL d   1       4.538  -0.754   0.075  0.00  0.00    -0.275 N 
ATOM     11  C   UNL d   1       5.496  -0.458  -0.850  0.00  0.00     0.323 C 
ATOM     12  H   UNL d   1       4.491  -0.517   1.029  0.00  0.00     0.173 HD
ATOM     13  N   UNL d   1       6.328   0.699  -0.333  0.00  0.00    -0.343 N 
ATOM     14  O   UNL d   1       5.857  -0.837  -1.926  0.00  0.00    -0.247 OA
ATOM     15  H   UNL d   1       6.114   1.068   0.555  0.00  0.00     0.164 HD
ATOM     16  O   UNL d   1       4.049  -1.763  -1.886  0.00  0.00    -0.267 OA
BRANCH  13  17
ATOM     17  C   UNL d   1       7.386   1.270  -1.053  0.00  0.00     0.120 C 
ATOM     18  C   UNL d   1       8.483   0.270  -1.375  0.00  0.00     0.026 C 
ENDBRANCH  13  17
ENDBRANCH   1   9
BRANCH   8  19
ATOM     19  C   UNL d   1       1.502   0.433  -0.120  0.00  0.00     0.020 C 
ATOM     20  C   UNL d   1       1.589   0.254  -1.635  0.00  0.00     0.009 C 
ATOM     21  C   UNL d   1       0.624  -0.769  -2.162  0.00  0.00     0.001 C 
ATOM     22  C   UNL d   1      -0.772  -0.293  -1.823  0.00  0.00     0.009 C 
ATOM     23  C   UNL d   1      -0.950  -0.120  -0.349  0.00  0.00     0.019 C 
ATOM     24  C   UNL d   1       0.066   0.887   0.129  0.00  0.00     0.018 C 
BRANCH  23  25
ATOM     25  C   UNL d   1      -2.305   0.402  -0.073  0.00  0.00    -0.053 A 
ATOM     26  C   UNL d   1      -3.018   1.215  -0.857  0.00  0.00     0.008 A 
ATOM     27  C   UNL d   1      -4.298   1.668  -0.550  0.00  0.00     0.008 A 
ATOM     28  C   UNL d   1      -4.880   1.276   0.601  0.00  0.00    -0.049 A 
ATOM     29  C   UNL d   1      -4.195   0.402   1.504  0.00  0.00    -0.055 A 
ATOM     30  C   UNL d   1      -4.820   0.010   2.780  0.00  0.00     0.049 C 
ATOM     31  C   UNL d   1      -2.928   0.006   1.123  0.00  0.00     0.014 A 
BRANCH  28  32
ATOM     32  C   UNL d   1      -6.263   1.694   1.001  0.00  0.00     0.011 C 
ATOM     33  C   UNL d   1      -7.197   0.732   0.317  0.00  0.00     0.015 C 
ATOM     34  C   UNL d   1      -6.549   3.089   0.545  0.00  0.00     0.015 C 
ENDBRANCH  28  32
ENDBRANCH  23  25
ENDBRANCH   8  19
TORSDOF 5
