
     RDKit          3D

 32 34  0  0  0  0  0  0  0  0999 V2000
    8.4830    0.2695   -1.3747 C   0  0  0  0  0  0  0  0  0  0  0  0
    7.3860    1.2703   -1.0531 C   0  0  0  0  0  0  0  0  0  0  0  0
    6.3280    0.6993   -0.3327 N   0  0  0  0  0  0  0  0  0  0  0  0
    5.4961   -0.4577   -0.8503 C   0  0  0  0  0  0  0  0  0  0  0  0
    5.8566   -0.8372   -1.9261 O   0  0  0  0  0  0  0  0  0  0  0  0
    4.5384   -0.7541    0.0749 N   0  0  0  0  0  0  0  0  0  0  0  0
    3.3170   -1.7571   -0.9948 C   0  0  0  0  0  0  0  0  0  0  0  0
    4.0492   -1.7631   -1.8860 O   0  0  0  0  0  0  0  0  0  0  0  0
    2.3504   -1.8358   -0.0394 C   0  0  0  0  0  0  0  0  0  0  0  0
    2.2454   -3.1909    0.5823 C   0  0  0  0  0  0  0  0  0  0  0  0
    2.8746   -4.1870   -0.1675 C   0  0  0  0  0  0  0  0  0  0  0  0
    3.4462   -5.1328   -0.8687 N   0  0  0  0  0  0  0  0  0  0  0  0
    1.4631   -3.4072    1.6552 C   0  0  0  0  0  0  0  0  0  0  0  0
    0.7212   -2.4123    2.2221 C   0  0  0  0  0  0  0  0  0  0  0  0
    0.7863   -1.1644    1.6647 C   0  0  0  0  0  0  0  0  0  0  0  0
    1.5805   -0.9216    0.5640 C   0  0  0  0  0  0  0  0  0  0  0  0
    1.5018    0.4334   -0.1204 C   0  0  0  0  0  0  0  0  0  0  0  0
    1.5892    0.2535   -1.6350 C   0  0  0  0  0  0  0  0  0  0  0  0
    0.6237   -0.7687   -2.1621 C   0  0  0  0  0  0  0  0  0  0  0  0
   -0.7724   -0.2930   -1.8227 C   0  0  0  0  0  0  0  0  0  0  0  0
   -0.9503   -0.1202   -0.3488 C   0  0  0  0  0  0  0  0  0  0  0  0
   -2.3046    0.4020   -0.0728 C   0  0  0  0  0  0  0  0  0  0  0  0
   -3.0180    1.2148   -0.8570 C   0  0  0  0  0  0  0  0  0  0  0  0
   -4.2980    1.6680   -0.5500 C   0  0  0  0  0  0  0  0  0  0  0  0
   -4.8799    1.2763    0.6009 C   0  0  0  0  0  0  0  0  0  0  0  0
   -6.2629    1.6937    1.0012 C   0  0  0  0  0  0  0  0  0  0  0  0
   -7.1973    0.7324    0.3172 C   0  0  0  0  0  0  0  0  0  0  0  0
   -6.5490    3.0891    0.5452 C   0  0  0  0  0  0  0  0  0  0  0  0
   -4.1946    0.4023    1.5043 C   0  0  0  0  0  0  0  0  0  0  0  0
   -4.8196    0.0098    2.7805 C   0  0  0  0  0  0  0  0  0  0  0  0
   -2.9283    0.0061    1.1228 C   0  0  0  0  0  0  0  0  0  0  0  0
    0.0659    0.8873    0.1294 C   0  0  0  0  0  0  0  0  0  0  0  0
  1  2  1  0
  2  3  1  0
  3  4  1  0
  4  5  2  0
  4  6  1  0
  6  7  1  0
  7  8  2  0
  7  9  1  0
  9 10  2  0
 10 11  1  0
 11 12  3  0
 10 13  1  0
 13 14  2  0
 14 15  1  0
 15 16  2  0
 16 17  1  0
 17 18  1  0
 18 19  1  0
 19 20  1  0
 20 21  1  0
 21 22  1  0
 22 23  2  0
 23 24  1  0
 24 25  2  0
 25 26  1  0
 26 27  1  0
 26 28  1  0
 25 29  1  0
 29 30  1  0
 29 31  2  0
 21 32  1  0
 16  9  1  0
 32 17  1  0
 31 22  1  0
M  END
$$$$
