MODEL 1
REMARK VINA RESULT:      -7.7      0.000      0.000
REMARK  5 active torsions:
REMARK  status: ('A' for Active; 'I' for Inactive)
REMARK    1  A    between atoms: C_2  and  C_3 
REMARK    2  A    between atoms: C_6  and  C_7 
REMARK    3  A    between atoms: C_11  and  C_12 
REMARK    4  A    between atoms: C_17  and  C_18 
REMARK       I    between atoms: C_18  and  N_19 
REMARK    5  A    between atoms: C_23  and  O_24 
ROOT
ATOM      1  C   UNL d   1      17.988 -44.348  52.339  0.00  0.00     0.012 A 
ATOM      2  C   UNL d   1      16.835 -44.482  53.091  0.00  0.00     0.038 A 
ATOM      3  C   UNL d   1      15.684 -43.774  52.716  0.00  0.00     0.050 A 
ATOM      4  C   UNL d   1      14.503 -43.948  53.497  0.00  0.00     0.021 C 
ATOM      5  N   UNL d   1      13.486 -44.091  54.146  0.00  0.00    -0.096 N 
ATOM      6  C   UNL d   1      15.705 -42.960  51.613  0.00  0.00     0.092 A 
ATOM      7  C   UNL d   1      16.875 -42.834  50.864  0.00  0.00     0.167 A 
ATOM      8  F   UNL d   1      16.859 -42.026  49.780  0.00  0.00    -0.202 F 
ATOM      9  C   UNL d   1      18.032 -43.542  51.236  0.00  0.00     0.116 A 
ENDROOT
BRANCH   6  10
ATOM     10  C   UNL d   1      14.516 -42.228  51.224  0.00  0.00     0.254 C 
ATOM     11  N   UNL d   1      13.700 -42.698  50.181  0.00  0.00    -0.366 N 
ATOM     12  H   UNL d   1      13.933 -43.532  49.712  0.00  0.00     0.159 HD
ATOM     13  H   UNL d   1      12.895 -42.195  49.921  0.00  0.00     0.159 HD
ATOM     14  O   UNL d   1      14.190 -41.146  51.814  0.00  0.00    -0.268 OA
ENDBRANCH   6  10
BRANCH   1  15
ATOM     15  C   UNL d   1      19.163 -45.093  52.747  0.00  0.00    -0.022 A 
ATOM     16  C   UNL d   1      20.030 -44.463  53.638  0.00  0.00     0.012 A 
ATOM     17  C   UNL d   1      21.166 -45.124  54.010  0.00  0.00     0.002 A 
ATOM     18  C   UNL d   1      21.489 -46.379  53.545  0.00  0.00     0.012 A 
ATOM     19  C   UNL d   1      20.612 -47.028  52.640  0.00  0.00    -0.025 A 
ATOM     20  C   UNL d   1      19.493 -46.343  52.291  0.00  0.00     0.024 A 
BRANCH  19  21
ATOM     21  C   UNL d   1      20.999 -48.346  52.159  0.00  0.00    -0.023 A 
ATOM     22  C   UNL d   1      22.282 -48.672  51.918  0.00  0.00     0.013 A 
ATOM     23  C   UNL d   1      22.648 -49.940  51.495  0.00  0.00     0.011 A 
ATOM     24  C   UNL d   1      21.656 -50.919  51.312  0.00  0.00    -0.020 A 
ATOM     25  C   UNL d   1      20.361 -50.581  51.556  0.00  0.00     0.123 A 
ATOM     26  C   UNL d   1      19.989 -49.298  51.984  0.00  0.00     0.055 A 
ATOM     27  F   UNL d   1      19.392 -51.511  51.370  0.00  0.00    -0.206 F 
BRANCH  24  28
ATOM     28  C   UNL d   1      22.059 -52.288  50.920  0.00  0.00     0.037 C 
ATOM     29  C   UNL d   1      22.247 -53.180  52.130  0.00  0.00     0.010 C 
ENDBRANCH  24  28
ENDBRANCH  19  21
ENDBRANCH   1  15
BRANCH   9  30
ATOM     30  O   UNL d   1      19.129 -43.342  50.423  0.00  0.00    -0.357 OA
ATOM     31  H   UNL d   1      19.173 -43.757  49.585  0.00  0.00     0.218 HD
ENDBRANCH   9  30
TORSDOF 5
ENDMDL
MODEL 2
REMARK VINA RESULT:      -7.5      2.863      4.403
REMARK  5 active torsions:
REMARK  status: ('A' for Active; 'I' for Inactive)
REMARK    1  A    between atoms: C_2  and  C_3 
REMARK    2  A    between atoms: C_6  and  C_7 
REMARK    3  A    between atoms: C_11  and  C_12 
REMARK    4  A    between atoms: C_17  and  C_18 
REMARK       I    between atoms: C_18  and  N_19 
REMARK    5  A    between atoms: C_23  and  O_24 
ROOT
ATOM      1  C   UNL d   1      19.880 -47.091  51.972  0.00  0.00     0.012 A 
ATOM      2  C   UNL d   1      20.402 -45.936  52.523  0.00  0.00     0.038 A 
ATOM      3  C   UNL d   1      19.581 -44.807  52.656  0.00  0.00     0.050 A 
ATOM      4  C   UNL d   1      20.139 -43.635  53.249  0.00  0.00     0.021 C 
ATOM      5  N   UNL d   1      20.596 -42.631  53.759  0.00  0.00    -0.096 N 
ATOM      6  C   UNL d   1      18.273 -44.853  52.245  0.00  0.00     0.092 A 
ATOM      7  C   UNL d   1      17.761 -46.026  51.690  0.00  0.00     0.167 A 
ATOM      8  F   UNL d   1      16.467 -46.037  51.299  0.00  0.00    -0.202 F 
ATOM      9  C   UNL d   1      18.580 -47.160  51.554  0.00  0.00     0.116 A 
ENDROOT
BRANCH   6  10
ATOM     10  C   UNL d   1      17.424 -43.687  52.382  0.00  0.00     0.254 C 
ATOM     11  N   UNL d   1      17.341 -42.741  51.346  0.00  0.00    -0.366 N 
ATOM     12  H   UNL d   1      17.859 -42.871  50.519  0.00  0.00     0.159 HD
ATOM     13  H   UNL d   1      16.763 -41.950  51.446  0.00  0.00     0.159 HD
ATOM     14  O   UNL d   1      16.741 -43.494  53.440  0.00  0.00    -0.268 OA
ENDBRANCH   6  10
BRANCH   1  15
ATOM     15  C   UNL d   1      20.750 -48.245  51.847  0.00  0.00    -0.022 A 
ATOM     16  C   UNL d   1      22.017 -48.023  51.311  0.00  0.00     0.012 A 
ATOM     17  C   UNL d   1      22.845 -49.097  51.145  0.00  0.00     0.002 A 
ATOM     18  C   UNL d   1      22.483 -50.382  51.483  0.00  0.00     0.012 A 
ATOM     19  C   UNL d   1      21.196 -50.616  52.031  0.00  0.00    -0.025 A 
ATOM     20  C   UNL d   1      20.399 -49.527  52.182  0.00  0.00     0.024 A 
BRANCH  19  21
ATOM     21  C   UNL d   1      20.847 -51.990  52.357  0.00  0.00    -0.023 A 
ATOM     22  C   UNL d   1      19.615 -52.337  52.774  0.00  0.00     0.013 A 
ATOM     23  C   UNL d   1      19.279 -53.653  53.048  0.00  0.00     0.011 A 
ATOM     24  C   UNL d   1      20.246 -54.660  52.886  0.00  0.00    -0.020 A 
ATOM     25  C   UNL d   1      21.489 -54.302  52.466  0.00  0.00     0.123 A 
ATOM     26  C   UNL d   1      21.831 -52.970  52.189  0.00  0.00     0.055 A 
ATOM     27  F   UNL d   1      22.435 -55.261  52.319  0.00  0.00    -0.206 F 
BRANCH  24  28
ATOM     28  C   UNL d   1      19.863 -56.070  53.120  0.00  0.00     0.037 C 
ATOM     29  C   UNL d   1      18.522 -56.394  52.495  0.00  0.00     0.010 C 
ENDBRANCH  24  28
ENDBRANCH  19  21
ENDBRANCH   1  15
BRANCH   9  30
ATOM     30  O   UNL d   1      17.968 -48.262  50.994  0.00  0.00    -0.357 OA
ATOM     31  H   UNL d   1      18.055 -48.431  50.077  0.00  0.00     0.218 HD
ENDBRANCH   9  30
TORSDOF 5
ENDMDL
MODEL 3
REMARK VINA RESULT:      -7.5      2.087      2.521
REMARK  5 active torsions:
REMARK  status: ('A' for Active; 'I' for Inactive)
REMARK    1  A    between atoms: C_2  and  C_3 
REMARK    2  A    between atoms: C_6  and  C_7 
REMARK    3  A    between atoms: C_11  and  C_12 
REMARK    4  A    between atoms: C_17  and  C_18 
REMARK       I    between atoms: C_18  and  N_19 
REMARK    5  A    between atoms: C_23  and  O_24 
ROOT
ATOM      1  C   UNL d   1      17.814 -44.324  52.527  0.00  0.00     0.012 A 
ATOM      2  C   UNL d   1      17.935 -43.367  53.517  0.00  0.00     0.038 A 
ATOM      3  C   UNL d   1      16.841 -42.538  53.808  0.00  0.00     0.050 A 
ATOM      4  C   UNL d   1      16.986 -41.575  54.850  0.00  0.00     0.021 C 
ATOM      5  N   UNL d   1      17.089 -40.753  55.740  0.00  0.00    -0.096 N 
ATOM      6  C   UNL d   1      15.665 -42.681  53.117  0.00  0.00     0.092 A 
ATOM      7  C   UNL d   1      15.560 -43.651  52.120  0.00  0.00     0.167 A 
ATOM      8  F   UNL d   1      14.384 -43.766  51.461  0.00  0.00    -0.202 F 
ATOM      9  C   UNL d   1      16.653 -44.484  51.824  0.00  0.00     0.116 A 
ENDROOT
BRANCH   6  10
ATOM     10  C   UNL d   1      14.535 -41.826  53.417  0.00  0.00     0.254 C 
ATOM     11  N   UNL d   1      13.623 -42.180  54.425  0.00  0.00    -0.366 N 
ATOM     12  H   UNL d   1      13.752 -43.013  54.936  0.00  0.00     0.159 HD
ATOM     13  H   UNL d   1      12.855 -41.596  54.623  0.00  0.00     0.159 HD
ATOM     14  O   UNL d   1      14.342 -40.743  52.773  0.00  0.00    -0.268 OA
ENDBRANCH   6  10
BRANCH   1  15
ATOM     15  C   UNL d   1      18.960 -45.169  52.248  0.00  0.00    -0.022 A 
ATOM     16  C   UNL d   1      20.137 -44.527  51.867  0.00  0.00     0.012 A 
ATOM     17  C   UNL d   1      21.222 -45.299  51.559  0.00  0.00     0.002 A 
ATOM     18  C   UNL d   1      21.202 -46.675  51.609  0.00  0.00     0.012 A 
ATOM     19  C   UNL d   1      20.008 -47.335  51.997  0.00  0.00    -0.025 A 
ATOM     20  C   UNL d   1      18.950 -46.539  52.296  0.00  0.00     0.024 A 
BRANCH  19  21
ATOM     21  C   UNL d   1      20.024 -48.789  52.019  0.00  0.00    -0.023 A 
ATOM     22  C   UNL d   1      18.963 -49.524  51.638  0.00  0.00     0.013 A 
ATOM     23  C   UNL d   1      18.997 -50.909  51.626  0.00  0.00     0.011 A 
ATOM     24  C   UNL d   1      20.171 -51.573  52.023  0.00  0.00    -0.020 A 
ATOM     25  C   UNL d   1      21.239 -50.824  52.409  0.00  0.00     0.123 A 
ATOM     26  C   UNL d   1      21.206 -49.422  52.421  0.00  0.00     0.055 A 
ATOM     27  F   UNL d   1      22.373 -51.452  52.806  0.00  0.00    -0.206 F 
BRANCH  24  28
ATOM     28  C   UNL d   1      20.222 -53.050  51.949  0.00  0.00     0.037 C 
ATOM     29  C   UNL d   1      19.392 -53.691  53.042  0.00  0.00     0.010 C 
ENDBRANCH  24  28
ENDBRANCH  19  21
ENDBRANCH   1  15
BRANCH   9  30
ATOM     30  O   UNL d   1      16.434 -45.406  50.822  0.00  0.00    -0.357 OA
ATOM     31  H   UNL d   1      16.003 -46.215  51.015  0.00  0.00     0.218 HD
ENDBRANCH   9  30
TORSDOF 5
ENDMDL
MODEL 4
REMARK VINA RESULT:      -6.9      1.759      2.441
REMARK  5 active torsions:
REMARK  status: ('A' for Active; 'I' for Inactive)
REMARK    1  A    between atoms: C_2  and  C_3 
REMARK    2  A    between atoms: C_6  and  C_7 
REMARK    3  A    between atoms: C_11  and  C_12 
REMARK    4  A    between atoms: C_17  and  C_18 
REMARK       I    between atoms: C_18  and  N_19 
REMARK    5  A    between atoms: C_23  and  O_24 
ROOT
ATOM      1  C   UNL d   1      19.703 -45.398  52.584  0.00  0.00     0.012 A 
ATOM      2  C   UNL d   1      18.698 -45.411  53.533  0.00  0.00     0.038 A 
ATOM      3  C   UNL d   1      17.538 -44.653  53.315  0.00  0.00     0.050 A 
ATOM      4  C   UNL d   1      16.508 -44.702  54.300  0.00  0.00     0.021 C 
ATOM      5  N   UNL d   1      15.617 -44.738  55.126  0.00  0.00    -0.096 N 
ATOM      6  C   UNL d   1      17.405 -43.911  52.170  0.00  0.00     0.092 A 
ATOM      7  C   UNL d   1      18.428 -43.908  51.221  0.00  0.00     0.167 A 
ATOM      8  F   UNL d   1      18.261 -43.168  50.101  0.00  0.00    -0.202 F 
ATOM      9  C   UNL d   1      19.593 -44.666  51.435  0.00  0.00     0.116 A 
ENDROOT
BRANCH   6  10
ATOM     10  C   UNL d   1      16.207 -43.128  51.943  0.00  0.00     0.254 C 
ATOM     11  N   UNL d   1      15.125 -43.673  51.230  0.00  0.00    -0.366 N 
ATOM     12  H   UNL d   1      15.178 -44.594  50.884  0.00  0.00     0.159 HD
ATOM     13  H   UNL d   1      14.315 -43.135  51.077  0.00  0.00     0.159 HD
ATOM     14  O   UNL d   1      16.110 -41.935  52.379  0.00  0.00    -0.268 OA
ENDBRANCH   6  10
BRANCH   1  15
ATOM     15  C   UNL d   1      20.891 -46.192  52.833  0.00  0.00    -0.022 A 
ATOM     16  C   UNL d   1      22.031 -45.505  53.247  0.00  0.00     0.012 A 
ATOM     17  C   UNL d   1      23.177 -46.221  53.451  0.00  0.00     0.002 A 
ATOM     18  C   UNL d   1      23.253 -47.584  53.267  0.00  0.00     0.012 A 
ATOM     19  C   UNL d   1      22.097 -48.290  52.848  0.00  0.00    -0.025 A 
ATOM     20  C   UNL d   1      20.976 -47.548  52.654  0.00  0.00     0.024 A 
BRANCH  19  21
ATOM     21  C   UNL d   1      22.224 -49.725  52.647  0.00  0.00    -0.023 A 
ATOM     22  C   UNL d   1      21.246 -50.461  52.091  0.00  0.00     0.013 A 
ATOM     23  C   UNL d   1      21.388 -51.822  51.869  0.00  0.00     0.011 A 
ATOM     24  C   UNL d   1      22.587 -52.458  52.233  0.00  0.00    -0.020 A 
ATOM     25  C   UNL d   1      23.572 -51.708  52.797  0.00  0.00     0.123 A 
ATOM     26  C   UNL d   1      23.429 -50.330  53.022  0.00  0.00     0.055 A 
ATOM     27  F   UNL d   1      24.729 -52.311  53.165  0.00  0.00    -0.206 F 
BRANCH  24  28
ATOM     28  C   UNL d   1      22.757 -53.898  51.937  0.00  0.00     0.037 C 
ATOM     29  C   UNL d   1      21.758 -54.744  52.699  0.00  0.00     0.010 C 
ENDBRANCH  24  28
ENDBRANCH  19  21
ENDBRANCH   1  15
BRANCH   9  30
ATOM     30  O   UNL d   1      20.536 -44.588  50.431  0.00  0.00    -0.357 OA
ATOM     31  H   UNL d   1      20.544 -43.852  49.852  0.00  0.00     0.218 HD
ENDBRANCH   9  30
TORSDOF 5
ENDMDL
MODEL 5
REMARK VINA RESULT:      -6.7      4.749      9.095
REMARK  5 active torsions:
REMARK  status: ('A' for Active; 'I' for Inactive)
REMARK    1  A    between atoms: C_2  and  C_3 
REMARK    2  A    between atoms: C_6  and  C_7 
REMARK    3  A    between atoms: C_11  and  C_12 
REMARK    4  A    between atoms: C_17  and  C_18 
REMARK       I    between atoms: C_18  and  N_19 
REMARK    5  A    between atoms: C_23  and  O_24 
ROOT
ATOM      1  C   UNL d   1      21.150 -49.369  52.049  0.00  0.00     0.012 A 
ATOM      2  C   UNL d   1      22.365 -49.783  52.564  0.00  0.00     0.038 A 
ATOM      3  C   UNL d   1      22.622 -51.156  52.696  0.00  0.00     0.050 A 
ATOM      4  C   UNL d   1      23.891 -51.555  53.210  0.00  0.00     0.021 C 
ATOM      5  N   UNL d   1      24.971 -51.914  53.638  0.00  0.00    -0.096 N 
ATOM      6  C   UNL d   1      21.677 -52.074  52.316  0.00  0.00     0.092 A 
ATOM      7  C   UNL d   1      20.457 -51.640  51.798  0.00  0.00     0.167 A 
ATOM      8  F   UNL d   1      19.550 -52.573  51.430  0.00  0.00    -0.202 F 
ATOM      9  C   UNL d   1      20.194 -50.266  51.663  0.00  0.00     0.116 A 
ENDROOT
BRANCH   6  10
ATOM     10  C   UNL d   1      21.942 -53.492  52.452  0.00  0.00     0.254 C 
ATOM     11  N   UNL d   1      22.825 -54.139  51.570  0.00  0.00    -0.366 N 
ATOM     12  H   UNL d   1      23.270 -53.627  50.857  0.00  0.00     0.159 HD
ATOM     13  H   UNL d   1      22.999 -55.103  51.667  0.00  0.00     0.159 HD
ATOM     14  O   UNL d   1      21.381 -54.179  53.366  0.00  0.00    -0.268 OA
ENDBRANCH   6  10
BRANCH   1  15
ATOM     15  C   UNL d   1      20.911 -47.944  51.920  0.00  0.00    -0.022 A 
ATOM     16  C   UNL d   1      22.019 -47.141  51.658  0.00  0.00     0.012 A 
ATOM     17  C   UNL d   1      21.830 -45.790  51.571  0.00  0.00     0.002 A 
ATOM     18  C   UNL d   1      20.600 -45.193  51.728  0.00  0.00     0.012 A 
ATOM     19  C   UNL d   1      19.467 -46.004  51.993  0.00  0.00    -0.025 A 
ATOM     20  C   UNL d   1      19.689 -47.341  52.074  0.00  0.00     0.024 A 
BRANCH  19  21
ATOM     21  C   UNL d   1      18.189 -45.332  52.171  0.00  0.00    -0.023 A 
ATOM     22  C   UNL d   1      17.424 -44.958  51.129  0.00  0.00     0.013 A 
ATOM     23  C   UNL d   1      16.191 -44.352  51.306  0.00  0.00     0.011 A 
ATOM     24  C   UNL d   1      15.718 -44.118  52.609  0.00  0.00    -0.020 A 
ATOM     25  C   UNL d   1      16.498 -44.497  53.658  0.00  0.00     0.123 A 
ATOM     26  C   UNL d   1      17.747 -45.111  53.480  0.00  0.00     0.055 A 
ATOM     27  F   UNL d   1      16.060 -44.266  54.920  0.00  0.00    -0.206 F 
BRANCH  24  28
ATOM     28  C   UNL d   1      14.374 -43.527  52.792  0.00  0.00     0.037 C 
ATOM     29  C   UNL d   1      13.994 -42.637  51.627  0.00  0.00     0.010 C 
ENDBRANCH  24  28
ENDBRANCH  19  21
ENDBRANCH   1  15
BRANCH   9  30
ATOM     30  O   UNL d   1      18.955 -49.954  51.140  0.00  0.00    -0.357 OA
ATOM     31  H   UNL d   1      18.859 -49.809  50.220  0.00  0.00     0.218 HD
ENDBRANCH   9  30
TORSDOF 5
ENDMDL
MODEL 6
REMARK VINA RESULT:      -6.5      2.131      3.226
REMARK  5 active torsions:
REMARK  status: ('A' for Active; 'I' for Inactive)
REMARK    1  A    between atoms: C_2  and  C_3 
REMARK    2  A    between atoms: C_6  and  C_7 
REMARK    3  A    between atoms: C_11  and  C_12 
REMARK    4  A    between atoms: C_17  and  C_18 
REMARK       I    between atoms: C_18  and  N_19 
REMARK    5  A    between atoms: C_23  and  O_24 
ROOT
ATOM      1  C   UNL d   1      17.680 -45.183  51.785  0.00  0.00     0.012 A 
ATOM      2  C   UNL d   1      16.600 -45.176  52.647  0.00  0.00     0.038 A 
ATOM      3  C   UNL d   1      15.777 -44.042  52.707  0.00  0.00     0.050 A 
ATOM      4  C   UNL d   1      14.655 -44.071  53.588  0.00  0.00     0.021 C 
ATOM      5  N   UNL d   1      13.691 -44.081  54.328  0.00  0.00    -0.096 N 
ATOM      6  C   UNL d   1      16.043 -42.954  51.916  0.00  0.00     0.092 A 
ATOM      7  C   UNL d   1      17.138 -42.976  51.052  0.00  0.00     0.167 A 
ATOM      8  F   UNL d   1      17.370 -41.887  50.284  0.00  0.00    -0.202 F 
ATOM      9  C   UNL d   1      17.966 -44.110  50.988  0.00  0.00     0.116 A 
ENDROOT
BRANCH   6  10
ATOM     10  C   UNL d   1      15.194 -41.782  51.977  0.00  0.00     0.254 C 
ATOM     11  N   UNL d   1      15.478 -40.743  52.881  0.00  0.00    -0.366 N 
ATOM     12  H   UNL d   1      16.261 -40.808  53.475  0.00  0.00     0.159 HD
ATOM     13  H   UNL d   1      14.896 -39.950  52.919  0.00  0.00     0.159 HD
ATOM     14  O   UNL d   1      14.175 -41.670  51.221  0.00  0.00    -0.268 OA
ENDBRANCH   6  10
BRANCH   1  15
ATOM     15  C   UNL d   1      18.514 -46.369  51.740  0.00  0.00    -0.022 A 
ATOM     16  C   UNL d   1      17.937 -47.524  51.215  0.00  0.00     0.012 A 
ATOM     17  C   UNL d   1      18.685 -48.667  51.196  0.00  0.00     0.002 A 
ATOM     18  C   UNL d   1      19.977 -48.726  51.670  0.00  0.00     0.012 A 
ATOM     19  C   UNL d   1      20.571 -47.555  52.204  0.00  0.00    -0.025 A 
ATOM     20  C   UNL d   1      19.801 -46.437  52.208  0.00  0.00     0.024 A 
BRANCH  19  21
ATOM     21  C   UNL d   1      21.930 -47.665  52.712  0.00  0.00    -0.023 A 
ATOM     22  C   UNL d   1      22.574 -46.624  53.270  0.00  0.00     0.013 A 
ATOM     23  C   UNL d   1      23.855 -46.745  53.785  0.00  0.00     0.011 A 
ATOM     24  C   UNL d   1      24.507 -47.988  53.725  0.00  0.00    -0.020 A 
ATOM     25  C   UNL d   1      23.851 -49.037  53.158  0.00  0.00     0.123 A 
ATOM     26  C   UNL d   1      22.554 -48.915  52.636  0.00  0.00     0.055 A 
ATOM     27  F   UNL d   1      24.473 -50.238  53.082  0.00  0.00    -0.206 F 
BRANCH  24  28
ATOM     28  C   UNL d   1      25.849 -48.127  54.332  0.00  0.00     0.037 C 
ATOM     29  C   UNL d   1      26.399 -46.788  54.778  0.00  0.00     0.010 C 
ENDBRANCH  24  28
ENDBRANCH  19  21
ENDBRANCH   1  15
BRANCH   9  30
ATOM     30  O   UNL d   1      19.018 -44.019  50.098  0.00  0.00    -0.357 OA
ATOM     31  H   UNL d   1      18.985 -43.400  49.396  0.00  0.00     0.218 HD
ENDBRANCH   9  30
TORSDOF 5
ENDMDL
MODEL 7
REMARK VINA RESULT:      -6.5      4.322      6.130
REMARK  5 active torsions:
REMARK  status: ('A' for Active; 'I' for Inactive)
REMARK    1  A    between atoms: C_2  and  C_3 
REMARK    2  A    between atoms: C_6  and  C_7 
REMARK    3  A    between atoms: C_11  and  C_12 
REMARK    4  A    between atoms: C_17  and  C_18 
REMARK       I    between atoms: C_18  and  N_19 
REMARK    5  A    between atoms: C_23  and  O_24 
ROOT
ATOM      1  C   UNL d   1      20.284 -44.380  53.046  0.00  0.00     0.012 A 
ATOM      2  C   UNL d   1      19.375 -43.717  53.848  0.00  0.00     0.038 A 
ATOM      3  C   UNL d   1      18.214 -43.180  53.272  0.00  0.00     0.050 A 
ATOM      4  C   UNL d   1      17.282 -42.520  54.127  0.00  0.00     0.021 C 
ATOM      5  N   UNL d   1      16.473 -41.962  54.843  0.00  0.00    -0.096 N 
ATOM      6  C   UNL d   1      17.985 -43.316  51.927  0.00  0.00     0.092 A 
ATOM      7  C   UNL d   1      18.913 -43.988  51.130  0.00  0.00     0.167 A 
ATOM      8  F   UNL d   1      18.654 -44.108  49.808  0.00  0.00    -0.202 F 
ATOM      9  C   UNL d   1      20.078 -44.528  51.702  0.00  0.00     0.116 A 
ENDROOT
BRANCH   6  10
ATOM     10  C   UNL d   1      16.787 -42.763  51.331  0.00  0.00     0.254 C 
ATOM     11  N   UNL d   1      15.656 -43.572  51.125  0.00  0.00    -0.366 N 
ATOM     12  H   UNL d   1      15.674 -44.520  51.390  0.00  0.00     0.159 HD
ATOM     13  H   UNL d   1      14.845 -43.190  50.717  0.00  0.00     0.159 HD
ATOM     14  O   UNL d   1      16.733 -41.540  50.979  0.00  0.00    -0.268 OA
ENDBRANCH   6  10
BRANCH   1  15
ATOM     15  C   UNL d   1      21.475 -44.928  53.667  0.00  0.00    -0.022 A 
ATOM     16  C   UNL d   1      21.305 -46.055  54.469  0.00  0.00     0.012 A 
ATOM     17  C   UNL d   1      22.402 -46.569  55.099  0.00  0.00     0.002 A 
ATOM     18  C   UNL d   1      23.661 -46.026  54.975  0.00  0.00     0.012 A 
ATOM     19  C   UNL d   1      23.843 -44.881  54.160  0.00  0.00    -0.025 A 
ATOM     20  C   UNL d   1      22.732 -44.395  53.548  0.00  0.00     0.024 A 
BRANCH  19  21
ATOM     21  C   UNL d   1      25.185 -44.328  54.070  0.00  0.00    -0.023 A 
ATOM     22  C   UNL d   1      26.171 -44.699  54.907  0.00  0.00     0.013 A 
ATOM     23  C   UNL d   1      27.458 -44.196  54.793  0.00  0.00     0.011 A 
ATOM     24  C   UNL d   1      27.748 -43.270  53.776  0.00  0.00    -0.020 A 
ATOM     25  C   UNL d   1      26.746 -42.898  52.935  0.00  0.00     0.123 A 
ATOM     26  C   UNL d   1      25.443 -43.406  53.049  0.00  0.00     0.055 A 
ATOM     27  F   UNL d   1      27.009 -41.996  51.958  0.00  0.00    -0.206 F 
BRANCH  24  28
ATOM     28  C   UNL d   1      29.137 -42.783  53.621  0.00  0.00     0.037 C 
ATOM     29  C   UNL d   1      29.321 -41.418  54.251  0.00  0.00     0.010 C 
ENDBRANCH  24  28
ENDBRANCH  19  21
ENDBRANCH   1  15
BRANCH   9  30
ATOM     30  O   UNL d   1      20.922 -45.171  50.820  0.00  0.00    -0.357 OA
ATOM     31  H   UNL d   1      20.593 -45.484  50.001  0.00  0.00     0.218 HD
ENDBRANCH   9  30
TORSDOF 5
ENDMDL
MODEL 8
REMARK VINA RESULT:      -6.4      3.960      8.713
REMARK  5 active torsions:
REMARK  status: ('A' for Active; 'I' for Inactive)
REMARK    1  A    between atoms: C_2  and  C_3 
REMARK    2  A    between atoms: C_6  and  C_7 
REMARK    3  A    between atoms: C_11  and  C_12 
REMARK    4  A    between atoms: C_17  and  C_18 
REMARK       I    between atoms: C_18  and  N_19 
REMARK    5  A    between atoms: C_23  and  O_24 
ROOT
ATOM      1  C   UNL d   1      19.446 -46.985  51.722  0.00  0.00     0.012 A 
ATOM      2  C   UNL d   1      20.757 -47.240  52.076  0.00  0.00     0.038 A 
ATOM      3  C   UNL d   1      21.225 -48.563  52.071  0.00  0.00     0.050 A 
ATOM      4  C   UNL d   1      22.589 -48.794  52.419  0.00  0.00     0.021 C 
ATOM      5  N   UNL d   1      23.751 -49.009  52.705  0.00  0.00    -0.096 N 
ATOM      6  C   UNL d   1      20.388 -49.589  51.717  0.00  0.00     0.092 A 
ATOM      7  C   UNL d   1      19.067 -49.316  51.362  0.00  0.00     0.167 A 
ATOM      8  F   UNL d   1      18.270 -50.352  51.014  0.00  0.00    -0.202 F 
ATOM      9  C   UNL d   1      18.593 -47.992  51.365  0.00  0.00     0.116 A 
ENDROOT
BRANCH   6  10
ATOM     10  C   UNL d   1      20.870 -50.955  51.711  0.00  0.00     0.254 C 
ATOM     11  N   UNL d   1      20.446 -51.863  52.696  0.00  0.00    -0.366 N 
ATOM     12  H   UNL d   1      19.814 -51.573  53.394  0.00  0.00     0.159 HD
ATOM     13  H   UNL d   1      20.779 -52.790  52.688  0.00  0.00     0.159 HD
ATOM     14  O   UNL d   1      21.688 -51.359  50.821  0.00  0.00    -0.268 OA
ENDBRANCH   6  10
BRANCH   1  15
ATOM     15  C   UNL d   1      18.988 -45.609  51.733  0.00  0.00    -0.022 A 
ATOM     16  C   UNL d   1      19.777 -44.678  51.061  0.00  0.00     0.012 A 
ATOM     17  C   UNL d   1      19.392 -43.367  51.087  0.00  0.00     0.002 A 
ATOM     18  C   UNL d   1      18.264 -42.930  51.744  0.00  0.00     0.012 A 
ATOM     19  C   UNL d   1      17.455 -43.872  52.429  0.00  0.00    -0.025 A 
ATOM     20  C   UNL d   1      17.866 -45.165  52.383  0.00  0.00     0.024 A 
BRANCH  19  21
ATOM     21  C   UNL d   1      16.282 -43.366  53.126  0.00  0.00    -0.023 A 
ATOM     22  C   UNL d   1      16.185 -42.087  53.532  0.00  0.00     0.013 A 
ATOM     23  C   UNL d   1      15.050 -41.602  54.163  0.00  0.00     0.011 A 
ATOM     24  C   UNL d   1      13.965 -42.466  54.387  0.00  0.00    -0.020 A 
ATOM     25  C   UNL d   1      14.070 -43.758  53.975  0.00  0.00     0.123 A 
ATOM     26  C   UNL d   1      15.218 -44.250  53.336  0.00  0.00     0.055 A 
ATOM     27  F   UNL d   1      13.035 -44.605  54.196  0.00  0.00    -0.206 F 
BRANCH  24  28
ATOM     28  C   UNL d   1      12.733 -41.928  55.004  0.00  0.00     0.037 C 
ATOM     29  C   UNL d   1      13.025 -41.239  56.321  0.00  0.00     0.010 C 
ENDBRANCH  24  28
ENDBRANCH  19  21
ENDBRANCH   1  15
BRANCH   9  30
ATOM     30  O   UNL d   1      17.271 -47.841  50.998  0.00  0.00    -0.357 OA
ATOM     31  H   UNL d   1      16.686 -47.353  51.542  0.00  0.00     0.218 HD
ENDBRANCH   9  30
TORSDOF 5
ENDMDL
MODEL 9
REMARK VINA RESULT:      -6.4      4.730      9.120
REMARK  5 active torsions:
REMARK  status: ('A' for Active; 'I' for Inactive)
REMARK    1  A    between atoms: C_2  and  C_3 
REMARK    2  A    between atoms: C_6  and  C_7 
REMARK    3  A    between atoms: C_11  and  C_12 
REMARK    4  A    between atoms: C_17  and  C_18 
REMARK       I    between atoms: C_18  and  N_19 
REMARK    5  A    between atoms: C_23  and  O_24 
ROOT
ATOM      1  C   UNL d   1      22.305 -49.219  52.584  0.00  0.00     0.012 A 
ATOM      2  C   UNL d   1      21.319 -50.090  52.162  0.00  0.00     0.038 A 
ATOM      3  C   UNL d   1      21.578 -51.469  52.153  0.00  0.00     0.050 A 
ATOM      4  C   UNL d   1      20.535 -52.347  51.734  0.00  0.00     0.021 C 
ATOM      5  N   UNL d   1      19.654 -53.110  51.387  0.00  0.00    -0.096 N 
ATOM      6  C   UNL d   1      22.798 -51.943  52.562  0.00  0.00     0.092 A 
ATOM      7  C   UNL d   1      23.783 -51.051  52.985  0.00  0.00     0.167 A 
ATOM      8  F   UNL d   1      24.974 -51.554  53.386  0.00  0.00    -0.202 F 
ATOM      9  C   UNL d   1      23.529 -49.669  52.996  0.00  0.00     0.116 A 
ENDROOT
BRANCH   6  10
ATOM     10  C   UNL d   1      23.067 -53.367  52.554  0.00  0.00     0.254 C 
ATOM     11  N   UNL d   1      23.575 -53.988  51.400  0.00  0.00    -0.366 N 
ATOM     12  H   UNL d   1      23.753 -53.455  50.592  0.00  0.00     0.159 HD
ATOM     13  H   UNL d   1      23.754 -54.957  51.400  0.00  0.00     0.159 HD
ATOM     14  O   UNL d   1      22.847 -54.082  53.585  0.00  0.00    -0.268 OA
ENDBRANCH   6  10
BRANCH   1  15
ATOM     15  C   UNL d   1      22.011 -47.799  52.586  0.00  0.00    -0.022 A 
ATOM     16  C   UNL d   1      23.064 -46.938  52.890  0.00  0.00     0.012 A 
ATOM     17  C   UNL d   1      22.808 -45.597  52.937  0.00  0.00     0.002 A 
ATOM     18  C   UNL d   1      21.562 -45.062  52.699  0.00  0.00     0.012 A 
ATOM     19  C   UNL d   1      20.485 -45.931  52.387  0.00  0.00    -0.025 A 
ATOM     20  C   UNL d   1      20.774 -47.257  52.348  0.00  0.00     0.024 A 
BRANCH  19  21
ATOM     21  C   UNL d   1      19.181 -45.328  52.160  0.00  0.00    -0.023 A 
ATOM     22  C   UNL d   1      18.166 -46.005  51.594  0.00  0.00     0.013 A 
ATOM     23  C   UNL d   1      16.915 -45.437  51.415  0.00  0.00     0.011 A 
ATOM     24  C   UNL d   1      16.693 -44.114  51.834  0.00  0.00    -0.020 A 
ATOM     25  C   UNL d   1      17.724 -43.434  52.405  0.00  0.00     0.123 A 
ATOM     26  C   UNL d   1      18.991 -44.009  52.587  0.00  0.00     0.055 A 
ATOM     27  F   UNL d   1      17.527 -42.153  52.802  0.00  0.00    -0.206 F 
BRANCH  24  28
ATOM     28  C   UNL d   1      15.339 -43.533  51.697  0.00  0.00     0.037 C 
ATOM     29  C   UNL d   1      15.267 -42.559  50.539  0.00  0.00     0.010 C 
ENDBRANCH  24  28
ENDBRANCH  19  21
ENDBRANCH   1  15
BRANCH   9  30
ATOM     30  O   UNL d   1      24.575 -48.883  53.434  0.00  0.00    -0.357 OA
ATOM     31  H   UNL d   1      25.444 -49.231  53.460  0.00  0.00     0.218 HD
ENDBRANCH   9  30
TORSDOF 5
ENDMDL
