REMARK  5 active torsions:
REMARK  status: ('A' for Active; 'I' for Inactive)
REMARK    1  A    between atoms: C_2  and  C_3 
REMARK    2  A    between atoms: C_6  and  C_7 
REMARK    3  A    between atoms: C_11  and  C_12 
REMARK    4  A    between atoms: C_17  and  C_18 
REMARK       I    between atoms: C_18  and  N_19 
REMARK    5  A    between atoms: C_23  and  O_24 
ROOT
ATOM      1  C   UNL d   1      -2.619   0.268  -0.739  0.00  0.00     0.012 A 
ATOM      2  C   UNL d   1      -3.465  -0.523  -1.494  0.00  0.00     0.038 A 
ATOM      3  C   UNL d   1      -4.782  -0.730  -1.058  0.00  0.00     0.050 A 
ATOM      4  C   UNL d   1      -5.640  -1.532  -1.868  0.00  0.00     0.021 C 
ATOM      5  N   UNL d   1      -6.387  -2.206  -2.550  0.00  0.00    -0.096 N 
ATOM      6  C   UNL d   1      -5.223  -0.151   0.104  0.00  0.00     0.092 A 
ATOM      7  C   UNL d   1      -4.357   0.644   0.855  0.00  0.00     0.167 A 
ATOM      8  F   UNL d   1      -4.826   1.203   1.994  0.00  0.00    -0.202 F 
ATOM      9  C   UNL d   1      -3.036   0.855   0.423  0.00  0.00     0.116 A 
ENDROOT
BRANCH   6  10
ATOM     10  C   UNL d   1      -6.583  -0.364   0.555  0.00  0.00     0.254 C 
ATOM     11  N   UNL d   1      -7.019   0.172   1.779  0.00  0.00    -0.366 N 
ATOM     12  H   UNL d   1      -6.399   0.699   2.334  0.00  0.00     0.159 HD
ATOM     13  H   UNL d   1      -7.944   0.022   2.081  0.00  0.00     0.159 HD
ATOM     14  O   UNL d   1      -7.407  -1.041  -0.142  0.00  0.00    -0.268 OA
ENDBRANCH   6  10
BRANCH   1  15
ATOM     15  C   UNL d   1      -1.263   0.468  -1.213  0.00  0.00    -0.022 A 
ATOM     16  C   UNL d   1      -1.112   0.854  -2.544  0.00  0.00     0.012 A 
ATOM     17  C   UNL d   1       0.155   1.012  -3.030  0.00  0.00     0.002 A 
ATOM     18  C   UNL d   1       1.282   0.808  -2.266  0.00  0.00     0.012 A 
ATOM     19  C   UNL d   1       1.137   0.417  -0.911  0.00  0.00    -0.025 A 
ATOM     20  C   UNL d   1      -0.135   0.269  -0.460  0.00  0.00     0.024 A 
BRANCH  19  21
ATOM     21  C   UNL d   1       2.353   0.194  -0.144  0.00  0.00    -0.023 A 
ATOM     22  C   UNL d   1       2.425  -0.726   0.835  0.00  0.00     0.013 A 
ATOM     23  C   UNL d   1       3.597  -0.959   1.537  0.00  0.00     0.011 A 
ATOM     24  C   UNL d   1       4.748  -0.217   1.222  0.00  0.00    -0.020 A 
ATOM     25  C   UNL d   1       4.668   0.713   0.232  0.00  0.00     0.123 A 
ATOM     26  C   UNL d   1       3.482   0.950  -0.479  0.00  0.00     0.055 A 
ATOM     27  F   UNL d   1       5.767   1.445  -0.073  0.00  0.00    -0.206 F 
BRANCH  24  28
ATOM     28  C   UNL d   1       6.012  -0.513   1.932  0.00  0.00     0.037 C 
ATOM     29  C   UNL d   1       6.946  -1.348   1.081  0.00  0.00     0.010 C 
ENDBRANCH  24  28
ENDBRANCH  19  21
ENDBRANCH   1  15
BRANCH   9  30
ATOM     30  O   UNL d   1      -2.271   1.658   1.244  0.00  0.00    -0.357 OA
ATOM     31  H   UNL d   1      -2.642   2.018   2.025  0.00  0.00     0.218 HD
ENDBRANCH   9  30
TORSDOF 5
