
     RDKit          3D

 28 30  0  0  0  0  0  0  0  0999 V2000
    6.9460   -1.3479    1.0815 C   0  0  0  0  0  0  0  0  0  0  0  0
    6.0123   -0.5126    1.9319 C   0  0  0  0  0  0  0  0  0  0  0  0
    4.7481   -0.2171    1.2223 C   0  0  0  0  0  0  0  0  0  0  0  0
    3.5973   -0.9587    1.5374 C   0  0  0  0  0  0  0  0  0  0  0  0
    2.4254   -0.7259    0.8354 C   0  0  0  0  0  0  0  0  0  0  0  0
    2.3532    0.1943   -0.1445 C   0  0  0  0  0  0  0  0  0  0  0  0
    1.1370    0.4170   -0.9108 C   0  0  0  0  0  0  0  0  0  0  0  0
    1.2825    0.8081   -2.2660 C   0  0  0  0  0  0  0  0  0  0  0  0
    0.1555    1.0120   -3.0305 C   0  0  0  0  0  0  0  0  0  0  0  0
   -1.1119    0.8537   -2.5443 C   0  0  0  0  0  0  0  0  0  0  0  0
   -1.2632    0.4684   -1.2128 C   0  0  0  0  0  0  0  0  0  0  0  0
   -2.6193    0.2684   -0.7385 C   0  0  0  0  0  0  0  0  0  0  0  0
   -3.4645   -0.5227   -1.4942 C   0  0  0  0  0  0  0  0  0  0  0  0
   -4.7825   -0.7296   -1.0576 C   0  0  0  0  0  0  0  0  0  0  0  0
   -5.6398   -1.5324   -1.8676 C   0  0  0  0  0  0  0  0  0  0  0  0
   -6.3868   -2.2058   -2.5500 N   0  0  0  0  0  0  0  0  0  0  0  0
   -5.2228   -0.1514    0.1045 C   0  0  0  0  0  0  0  0  0  0  0  0
   -6.5828   -0.3640    0.5553 C   0  0  0  0  0  0  0  0  0  0  0  0
   -7.0189    0.1725    1.7788 N   0  0  0  0  0  0  0  0  0  0  0  0
   -7.4067   -1.0412   -0.1423 O   0  0  0  0  0  0  0  0  0  0  0  0
   -4.3573    0.6445    0.8548 C   0  0  0  0  0  0  0  0  0  0  0  0
   -4.8260    1.2030    1.9937 F   0  0  0  0  0  0  0  0  0  0  0  0
   -3.0356    0.8546    0.4230 C   0  0  0  0  0  0  0  0  0  0  0  0
   -2.2705    1.6577    1.2444 O   0  0  0  0  0  0  0  0  0  0  0  0
   -0.1354    0.2690   -0.4602 C   0  0  0  0  0  0  0  0  0  0  0  0
    3.4816    0.9504   -0.4791 C   0  0  0  0  0  0  0  0  0  0  0  0
    4.6680    0.7134    0.2324 C   0  0  0  0  0  0  0  0  0  0  0  0
    5.7666    1.4446   -0.0734 F   0  0  0  0  0  0  0  0  0  0  0  0
  1  2  1  0
  2  3  1  0
  3  4  2  0
  4  5  1  0
  5  6  2  0
  6  7  1  0
  7  8  2  0
  8  9  1  0
  9 10  2  0
 10 11  1  0
 11 12  1  0
 12 13  2  0
 13 14  1  0
 14 15  1  0
 15 16  3  0
 14 17  2  0
 17 18  1  0
 18 19  1  0
 18 20  2  0
 17 21  1  0
 21 22  1  0
 21 23  2  0
 23 24  1  0
 11 25  2  0
  6 26  1  0
 26 27  2  0
 27 28  1  0
 27  3  1  0
 25  7  1  0
 23 12  1  0
M  END
$$$$
