REMARK  5 active torsions:
REMARK  status: ('A' for Active; 'I' for Inactive)
REMARK       I    between atoms: C_2  and  N_4 
REMARK       I    between atoms: N_4  and  C_5 
REMARK    1  A    between atoms: C_5  and  C_7 
REMARK    2  A    between atoms: C_14  and  C_15 
REMARK    3  A    between atoms: C_19  and  C_20 
REMARK    4  A    between atoms: C_25  and  C_26 
REMARK    5  A    between atoms: C_26  and  O_27 
ROOT
ATOM      1  C   UNL d   1       3.075  -1.718  -1.069  0.00  0.00     0.064 A 
ATOM      2  C   UNL d   1       4.016  -2.758  -0.883  0.00  0.00     0.061 A 
ATOM      3  C   UNL d   1       5.423  -2.442  -1.154  0.00  0.00     0.100 C 
ATOM      4  N   UNL d   1       6.522  -2.189  -1.346  0.00  0.00    -0.191 NA
ATOM      5  C   UNL d   1       3.637  -4.008  -0.486  0.00  0.00     0.024 A 
ATOM      6  C   UNL d   1       2.296  -4.228  -0.271  0.00  0.00     0.002 A 
ATOM      7  C   UNL d   1       1.373  -3.232  -0.450  0.00  0.00     0.013 A 
ATOM      8  C   UNL d   1       1.742  -1.937  -0.860  0.00  0.00    -0.009 A 
ENDROOT
BRANCH   1   9
ATOM      9  C   UNL d   1       3.550  -0.418  -1.488  0.00  0.00     0.260 C 
ATOM     10  N   UNL d   1       2.954   0.813  -1.128  0.00  0.00    -0.294 N 
ATOM     11  C   UNL d   1       3.502   2.047  -1.628  0.00  0.00     0.220 C 
ATOM     12  H   UNL d   1       2.166   0.827  -0.538  0.00  0.00     0.172 HD
ATOM     13  C   UNL d   1       2.956   3.379  -1.290  0.00  0.00     0.117 C 
ATOM     14  O   UNL d   1       4.499   1.992  -2.391  0.00  0.00    -0.274 OA
ATOM     15  O   UNL d   1       4.582  -0.372  -2.226  0.00  0.00    -0.267 OA
ENDBRANCH   1   9
BRANCH   8  16
ATOM     16  C   UNL d   1       0.681  -0.965  -1.134  0.00  0.00    -0.024 A 
ATOM     17  C   UNL d   1       0.571  -0.314  -2.372  0.00  0.00     0.012 A 
ATOM     18  C   UNL d   1      -0.463   0.565  -2.582  0.00  0.00     0.002 A 
ATOM     19  C   UNL d   1      -1.417   0.843  -1.611  0.00  0.00     0.012 A 
ATOM     20  C   UNL d   1      -1.311   0.210  -0.403  0.00  0.00    -0.022 A 
ATOM     21  C   UNL d   1      -0.258  -0.687  -0.187  0.00  0.00     0.024 A 
BRANCH  20  22
ATOM     22  C   UNL d   1      -2.286   0.465   0.638  0.00  0.00     0.014 A 
ATOM     23  C   UNL d   1      -2.729   1.702   1.048  0.00  0.00     0.038 A 
ATOM     24  C   UNL d   1      -3.663   1.844   2.073  0.00  0.00     0.054 A 
ATOM     25  C   UNL d   1      -4.106   3.105   2.524  0.00  0.00     0.100 C 
ATOM     26  C   UNL d   1      -4.173   0.720   2.707  0.00  0.00    -0.011 A 
ATOM     27  N   UNL d   1      -4.486   4.166   2.925  0.00  0.00    -0.191 NA
ATOM     28  C   UNL d   1      -3.747  -0.523   2.316  0.00  0.00     0.054 A 
ATOM     29  C   UNL d   1      -2.821  -0.642   1.302  0.00  0.00     0.128 A 
ATOM     30  F   UNL d   1      -2.433  -1.896   0.954  0.00  0.00    -0.205 F 
BRANCH  26  31
ATOM     31  C   UNL d   1      -5.191   0.854   3.796  0.00  0.00     0.204 C 
BRANCH  31  32
ATOM     32  O   UNL d   1      -4.575   1.299   4.958  0.00  0.00    -0.396 OA
ATOM     33  H   UNL d   1      -3.896   0.661   5.229  0.00  0.00     0.209 HD
ENDBRANCH  31  32
ENDBRANCH  26  31
ENDBRANCH  20  22
ENDBRANCH   8  16
TORSDOF 5
