MODEL 1
REMARK VINA RESULT:     -10.2      0.000      0.000
REMARK  5 active torsions:
REMARK  status: ('A' for Active; 'I' for Inactive)
REMARK       I    between atoms: C_2  and  N_4 
REMARK       I    between atoms: N_4  and  C_5 
REMARK    1  A    between atoms: C_5  and  C_7 
REMARK    2  A    between atoms: C_14  and  C_15 
REMARK    3  A    between atoms: C_19  and  C_20 
REMARK    4  A    between atoms: C_25  and  C_26 
REMARK    5  A    between atoms: C_26  and  O_27 
ROOT
ATOM      1  C   UNL d   1      -1.734 -30.330  -8.987  0.00  0.00     0.064 A 
ATOM      2  C   UNL d   1      -1.863 -30.182  -7.586  0.00  0.00     0.061 A 
ATOM      3  C   UNL d   1      -1.144 -31.145  -6.744  0.00  0.00     0.100 C 
ATOM      4  N   UNL d   1      -0.567 -31.884  -6.089  0.00  0.00    -0.191 NA
ATOM      5  C   UNL d   1      -2.633 -29.199  -7.035  0.00  0.00     0.024 A 
ATOM      6  C   UNL d   1      -3.290 -28.348  -7.893  0.00  0.00     0.002 A 
ATOM      7  C   UNL d   1      -3.178 -28.481  -9.252  0.00  0.00     0.013 A 
ATOM      8  C   UNL d   1      -2.390 -29.488  -9.841  0.00  0.00    -0.009 A 
ENDROOT
BRANCH   1   9
ATOM      9  C   UNL d   1      -0.898 -31.392  -9.500  0.00  0.00     0.260 C 
ATOM     10  N   UNL d   1       0.491 -31.280  -9.742  0.00  0.00    -0.294 N 
ATOM     11  C   UNL d   1       1.217 -32.401 -10.279  0.00  0.00     0.220 C 
ATOM     12  H   UNL d   1       0.961 -30.437  -9.545  0.00  0.00     0.172 HD
ATOM     13  C   UNL d   1       2.671 -32.379 -10.547  0.00  0.00     0.117 C 
ATOM     14  O   UNL d   1       0.584 -33.456 -10.534  0.00  0.00    -0.274 OA
ATOM     15  O   UNL d   1      -1.443 -32.512  -9.744  0.00  0.00    -0.267 OA
ENDBRANCH   1   9
BRANCH   8  16
ATOM     16  C   UNL d   1      -2.415 -29.627 -11.299  0.00  0.00    -0.024 A 
ATOM     17  C   UNL d   1      -3.548 -29.297 -12.058  0.00  0.00     0.012 A 
ATOM     18  C   UNL d   1      -3.503 -29.419 -13.425  0.00  0.00     0.002 A 
ATOM     19  C   UNL d   1      -2.371 -29.860 -14.100  0.00  0.00     0.012 A 
ATOM     20  C   UNL d   1      -1.266 -30.183 -13.361  0.00  0.00    -0.022 A 
ATOM     21  C   UNL d   1      -1.309 -30.059 -11.968  0.00  0.00     0.024 A 
BRANCH  20  22
ATOM     22  C   UNL d   1      -0.061 -30.644 -14.022  0.00  0.00     0.014 A 
ATOM     23  C   UNL d   1       1.222 -30.531 -13.538  0.00  0.00     0.038 A 
ATOM     24  C   UNL d   1       2.322 -30.994 -14.258  0.00  0.00     0.054 A 
ATOM     25  C   UNL d   1       3.645 -30.861 -13.789  0.00  0.00     0.100 C 
ATOM     26  C   UNL d   1       2.137 -31.590 -15.498  0.00  0.00    -0.011 A 
ATOM     27  N   UNL d   1       4.775 -30.748 -13.411  0.00  0.00    -0.191 NA
ATOM     28  C   UNL d   1       0.868 -31.714 -16.001  0.00  0.00     0.054 A 
ATOM     29  C   UNL d   1      -0.206 -31.247 -15.274  0.00  0.00     0.128 A 
ATOM     30  F   UNL d   1      -1.441 -31.394 -15.819  0.00  0.00    -0.205 F 
BRANCH  26  31
ATOM     31  C   UNL d   1       3.305 -32.110 -16.276  0.00  0.00     0.204 C 
BRANCH  31  32
ATOM     32  O   UNL d   1       2.856 -32.712 -17.444  0.00  0.00    -0.396 OA
ATOM     33  H   UNL d   1       2.408 -33.545 -17.227  0.00  0.00     0.209 HD
ENDBRANCH  31  32
ENDBRANCH  26  31
ENDBRANCH  20  22
ENDBRANCH   8  16
TORSDOF 5
ENDMDL
MODEL 2
REMARK VINA RESULT:      -9.8      2.548      4.233
REMARK  5 active torsions:
REMARK  status: ('A' for Active; 'I' for Inactive)
REMARK       I    between atoms: C_2  and  N_4 
REMARK       I    between atoms: N_4  and  C_5 
REMARK    1  A    between atoms: C_5  and  C_7 
REMARK    2  A    between atoms: C_14  and  C_15 
REMARK    3  A    between atoms: C_19  and  C_20 
REMARK    4  A    between atoms: C_25  and  C_26 
REMARK    5  A    between atoms: C_26  and  O_27 
ROOT
ATOM      1  C   UNL d   1      -1.478 -30.065 -12.993  0.00  0.00     0.064 A 
ATOM      2  C   UNL d   1      -2.527 -29.681 -12.125  0.00  0.00     0.061 A 
ATOM      3  C   UNL d   1      -2.249 -29.716 -10.685  0.00  0.00     0.100 C 
ATOM      4  N   UNL d   1      -2.024 -29.725  -9.563  0.00  0.00    -0.191 NA
ATOM      5  C   UNL d   1      -3.753 -29.309 -12.598  0.00  0.00     0.024 A 
ATOM      6  C   UNL d   1      -3.939 -29.321 -13.961  0.00  0.00     0.002 A 
ATOM      7  C   UNL d   1      -2.934 -29.694 -14.814  0.00  0.00     0.013 A 
ATOM      8  C   UNL d   1      -1.664 -30.082 -14.347  0.00  0.00    -0.009 A 
ENDROOT
BRANCH   1   9
ATOM      9  C   UNL d   1      -0.206 -30.444 -12.420  0.00  0.00     0.260 C 
ATOM     10  N   UNL d   1       0.005 -31.576 -11.599  0.00  0.00    -0.294 N 
ATOM     11  C   UNL d   1       1.315 -31.839 -11.064  0.00  0.00     0.220 C 
ATOM     12  H   UNL d   1      -0.743 -32.183 -11.393  0.00  0.00     0.172 HD
ATOM     13  C   UNL d   1       1.630 -33.006 -10.213  0.00  0.00     0.117 C 
ATOM     14  O   UNL d   1       2.243 -31.036 -11.335  0.00  0.00    -0.274 OA
ATOM     15  O   UNL d   1       0.802 -29.715 -12.677  0.00  0.00    -0.267 OA
ENDBRANCH   1   9
BRANCH   8  16
ATOM     16  C   UNL d   1      -0.684 -30.571 -15.320  0.00  0.00    -0.024 A 
ATOM     17  C   UNL d   1      -0.960 -30.613 -16.695  0.00  0.00     0.012 A 
ATOM     18  C   UNL d   1       0.008 -31.053 -17.564  0.00  0.00     0.002 A 
ATOM     19  C   UNL d   1       1.265 -31.464 -17.137  0.00  0.00     0.012 A 
ATOM     20  C   UNL d   1       1.536 -31.424 -15.797  0.00  0.00    -0.022 A 
ATOM     21  C   UNL d   1       0.550 -30.975 -14.910  0.00  0.00     0.024 A 
BRANCH  20  22
ATOM     22  C   UNL d   1       2.835 -31.838 -15.306  0.00  0.00     0.014 A 
ATOM     23  C   UNL d   1       4.053 -31.362 -15.736  0.00  0.00     0.038 A 
ATOM     24  C   UNL d   1       5.253 -31.837 -15.209  0.00  0.00     0.054 A 
ATOM     25  C   UNL d   1       6.510 -31.381 -15.659  0.00  0.00     0.100 C 
ATOM     26  C   UNL d   1       5.239 -32.812 -14.222  0.00  0.00    -0.011 A 
ATOM     27  N   UNL d   1       7.584 -31.012 -16.034  0.00  0.00    -0.191 NA
ATOM     28  C   UNL d   1       4.038 -33.301 -13.778  0.00  0.00     0.054 A 
ATOM     29  C   UNL d   1       2.863 -32.821 -14.313  0.00  0.00     0.128 A 
ATOM     30  F   UNL d   1       1.701 -33.339 -13.837  0.00  0.00    -0.205 F 
BRANCH  26  31
ATOM     31  C   UNL d   1       6.518 -33.318 -13.632  0.00  0.00     0.204 C 
BRANCH  31  32
ATOM     32  O   UNL d   1       6.446 -34.696 -13.475  0.00  0.00    -0.396 OA
ATOM     33  H   UNL d   1       5.565 -35.006 -13.738  0.00  0.00     0.209 HD
ENDBRANCH  31  32
ENDBRANCH  26  31
ENDBRANCH  20  22
ENDBRANCH   8  16
TORSDOF 5
ENDMDL
MODEL 3
REMARK VINA RESULT:      -9.8      2.610      4.204
REMARK  5 active torsions:
REMARK  status: ('A' for Active; 'I' for Inactive)
REMARK       I    between atoms: C_2  and  N_4 
REMARK       I    between atoms: N_4  and  C_5 
REMARK    1  A    between atoms: C_5  and  C_7 
REMARK    2  A    between atoms: C_14  and  C_15 
REMARK    3  A    between atoms: C_19  and  C_20 
REMARK    4  A    between atoms: C_25  and  C_26 
REMARK    5  A    between atoms: C_26  and  O_27 
ROOT
ATOM      1  C   UNL d   1      -1.342 -30.652 -11.261  0.00  0.00     0.064 A 
ATOM      2  C   UNL d   1      -2.481 -30.255 -10.522  0.00  0.00     0.061 A 
ATOM      3  C   UNL d   1      -2.550 -30.683  -9.120  0.00  0.00     0.100 C 
ATOM      4  N   UNL d   1      -2.593 -31.000  -8.021  0.00  0.00    -0.191 NA
ATOM      5  C   UNL d   1      -3.485 -29.522 -11.086  0.00  0.00     0.024 A 
ATOM      6  C   UNL d   1      -3.353 -29.177 -12.412  0.00  0.00     0.002 A 
ATOM      7  C   UNL d   1      -2.258 -29.557 -13.141  0.00  0.00     0.013 A 
ATOM      8  C   UNL d   1      -1.213 -30.314 -12.579  0.00  0.00    -0.009 A 
ENDROOT
BRANCH   1   9
ATOM      9  C   UNL d   1      -0.317 -31.426 -10.596  0.00  0.00     0.260 C 
ATOM     10  N   UNL d   1       0.832 -30.880  -9.978  0.00  0.00    -0.294 N 
ATOM     11  C   UNL d   1       1.800 -31.754  -9.367  0.00  0.00     0.220 C 
ATOM     12  H   UNL d   1       0.971 -29.905  -9.966  0.00  0.00     0.172 HD
ATOM     13  C   UNL d   1       3.019 -31.271  -8.684  0.00  0.00     0.117 C 
ATOM     14  O   UNL d   1       1.598 -32.993  -9.413  0.00  0.00    -0.274 OA
ATOM     15  O   UNL d   1      -0.459 -32.687 -10.552  0.00  0.00    -0.267 OA
ENDBRANCH   1   9
BRANCH   8  16
ATOM     16  C   UNL d   1      -0.134 -30.771 -13.458  0.00  0.00    -0.024 A 
ATOM     17  C   UNL d   1      -0.293 -30.855 -14.849  0.00  0.00     0.012 A 
ATOM     18  C   UNL d   1       0.764 -31.260 -15.626  0.00  0.00     0.002 A 
ATOM     19  C   UNL d   1       2.000 -31.597 -15.090  0.00  0.00     0.012 A 
ATOM     20  C   UNL d   1       2.158 -31.517 -13.733  0.00  0.00    -0.022 A 
ATOM     21  C   UNL d   1       1.082 -31.103 -12.939  0.00  0.00     0.024 A 
BRANCH  20  22
ATOM     22  C   UNL d   1       3.431 -31.853 -13.129  0.00  0.00     0.014 A 
ATOM     23  C   UNL d   1       3.684 -32.939 -12.323  0.00  0.00     0.038 A 
ATOM     24  C   UNL d   1       4.946 -33.169 -11.776  0.00  0.00     0.054 A 
ATOM     25  C   UNL d   1       5.214 -34.262 -10.925  0.00  0.00     0.100 C 
ATOM     26  C   UNL d   1       5.987 -32.292 -12.042  0.00  0.00    -0.011 A 
ATOM     27  N   UNL d   1       5.458 -35.177 -10.195  0.00  0.00    -0.191 NA
ATOM     28  C   UNL d   1       5.760 -31.202 -12.843  0.00  0.00     0.054 A 
ATOM     29  C   UNL d   1       4.505 -30.992 -13.372  0.00  0.00     0.128 A 
ATOM     30  F   UNL d   1       4.334 -29.898 -14.158  0.00  0.00    -0.205 F 
BRANCH  26  31
ATOM     31  C   UNL d   1       7.353 -32.534 -11.479  0.00  0.00     0.204 C 
BRANCH  31  32
ATOM     32  O   UNL d   1       7.537 -31.749 -10.349  0.00  0.00    -0.396 OA
ATOM     33  H   UNL d   1       8.486 -31.620 -10.196  0.00  0.00     0.209 HD
ENDBRANCH  31  32
ENDBRANCH  26  31
ENDBRANCH  20  22
ENDBRANCH   8  16
TORSDOF 5
ENDMDL
MODEL 4
REMARK VINA RESULT:      -9.5      2.507      4.213
REMARK  5 active torsions:
REMARK  status: ('A' for Active; 'I' for Inactive)
REMARK       I    between atoms: C_2  and  N_4 
REMARK       I    between atoms: N_4  and  C_5 
REMARK    1  A    between atoms: C_5  and  C_7 
REMARK    2  A    between atoms: C_14  and  C_15 
REMARK    3  A    between atoms: C_19  and  C_20 
REMARK    4  A    between atoms: C_25  and  C_26 
REMARK    5  A    between atoms: C_26  and  O_27 
ROOT
ATOM      1  C   UNL d   1      -2.210 -30.222 -10.431  0.00  0.00     0.064 A 
ATOM      2  C   UNL d   1      -3.467 -29.593 -10.592  0.00  0.00     0.061 A 
ATOM      3  C   UNL d   1      -4.281 -29.409  -9.385  0.00  0.00     0.100 C 
ATOM      4  N   UNL d   1      -4.906 -29.247  -8.441  0.00  0.00    -0.191 NA
ATOM      5  C   UNL d   1      -3.918 -29.190 -11.816  0.00  0.00     0.024 A 
ATOM      6  C   UNL d   1      -3.102 -29.416 -12.900  0.00  0.00     0.002 A 
ATOM      7  C   UNL d   1      -1.884 -30.026 -12.760  0.00  0.00     0.013 A 
ATOM      8  C   UNL d   1      -1.401 -30.451 -11.508  0.00  0.00    -0.009 A 
ENDROOT
BRANCH   1   9
ATOM      9  C   UNL d   1      -1.797 -30.620  -9.103  0.00  0.00     0.260 C 
ATOM     10  N   UNL d   1      -0.943 -29.867  -8.264  0.00  0.00    -0.294 N 
ATOM     11  C   UNL d   1      -0.580 -30.378  -6.968  0.00  0.00     0.220 C 
ATOM     12  H   UNL d   1      -0.597 -28.996  -8.565  0.00  0.00     0.172 HD
ATOM     13  C   UNL d   1       0.291 -29.652  -6.019  0.00  0.00     0.117 C 
ATOM     14  O   UNL d   1      -1.028 -31.500  -6.621  0.00  0.00    -0.274 OA
ATOM     15  O   UNL d   1      -2.237 -31.721  -8.649  0.00  0.00    -0.267 OA
ENDBRANCH   1   9
BRANCH   8  16
ATOM     16  C   UNL d   1      -0.139 -31.194 -11.464  0.00  0.00    -0.024 A 
ATOM     17  C   UNL d   1       0.161 -32.089 -10.427  0.00  0.00     0.012 A 
ATOM     18  C   UNL d   1       1.348 -32.780 -10.454  0.00  0.00     0.002 A 
ATOM     19  C   UNL d   1       2.276 -32.630 -11.477  0.00  0.00     0.012 A 
ATOM     20  C   UNL d   1       1.986 -31.757 -12.489  0.00  0.00    -0.022 A 
ATOM     21  C   UNL d   1       0.777 -31.052 -12.463  0.00  0.00     0.024 A 
BRANCH  20  22
ATOM     22  C   UNL d   1       2.923 -31.573 -13.579  0.00  0.00     0.014 A 
ATOM     23  C   UNL d   1       2.665 -31.788 -14.914  0.00  0.00     0.038 A 
ATOM     24  C   UNL d   1       3.642 -31.595 -15.890  0.00  0.00     0.054 A 
ATOM     25  C   UNL d   1       3.403 -31.839 -17.259  0.00  0.00     0.100 C 
ATOM     26  C   UNL d   1       4.912 -31.172 -15.526  0.00  0.00    -0.011 A 
ATOM     27  N   UNL d   1       3.220 -32.049 -18.422  0.00  0.00    -0.191 NA
ATOM     28  C   UNL d   1       5.192 -30.951 -14.202  0.00  0.00     0.054 A 
ATOM     29  C   UNL d   1       4.213 -31.150 -13.252  0.00  0.00     0.128 A 
ATOM     30  F   UNL d   1       4.544 -30.916 -11.956  0.00  0.00    -0.205 F 
BRANCH  26  31
ATOM     31  C   UNL d   1       5.966 -30.941 -16.563  0.00  0.00     0.204 C 
BRANCH  31  32
ATOM     32  O   UNL d   1       6.272 -29.588 -16.623  0.00  0.00    -0.396 OA
ATOM     33  H   UNL d   1       5.945 -29.146 -15.824  0.00  0.00     0.209 HD
ENDBRANCH  31  32
ENDBRANCH  26  31
ENDBRANCH  20  22
ENDBRANCH   8  16
TORSDOF 5
ENDMDL
MODEL 5
REMARK VINA RESULT:      -9.5      3.330      6.838
REMARK  5 active torsions:
REMARK  status: ('A' for Active; 'I' for Inactive)
REMARK       I    between atoms: C_2  and  N_4 
REMARK       I    between atoms: N_4  and  C_5 
REMARK    1  A    between atoms: C_5  and  C_7 
REMARK    2  A    between atoms: C_14  and  C_15 
REMARK    3  A    between atoms: C_19  and  C_20 
REMARK    4  A    between atoms: C_25  and  C_26 
REMARK    5  A    between atoms: C_26  and  O_27 
ROOT
ATOM      1  C   UNL d   1       5.243 -33.496 -11.452  0.00  0.00     0.064 A 
ATOM      2  C   UNL d   1       5.827 -34.314 -10.455  0.00  0.00     0.061 A 
ATOM      3  C   UNL d   1       5.210 -34.289  -9.125  0.00  0.00     0.100 C 
ATOM      4  N   UNL d   1       4.716 -34.284  -8.093  0.00  0.00    -0.191 NA
ATOM      5  C   UNL d   1       6.926 -35.083 -10.709  0.00  0.00     0.024 A 
ATOM      6  C   UNL d   1       7.456 -35.035 -11.978  0.00  0.00     0.002 A 
ATOM      7  C   UNL d   1       6.904 -34.246 -12.952  0.00  0.00     0.013 A 
ATOM      8  C   UNL d   1       5.772 -33.445 -12.711  0.00  0.00    -0.009 A 
ENDROOT
BRANCH   1   9
ATOM      9  C   UNL d   1       4.077 -32.712 -11.111  0.00  0.00     0.260 C 
ATOM     10  N   UNL d   1       2.742 -33.165 -11.215  0.00  0.00    -0.294 N 
ATOM     11  C   UNL d   1       1.658 -32.282 -10.870  0.00  0.00     0.220 C 
ATOM     12  H   UNL d   1       2.553 -34.080 -11.524  0.00  0.00     0.172 HD
ATOM     13  C   UNL d   1       0.233 -32.676 -10.932  0.00  0.00     0.117 C 
ATOM     14  O   UNL d   1       1.934 -31.115 -10.495  0.00  0.00    -0.274 OA
ATOM     15  O   UNL d   1       4.261 -31.532 -10.678  0.00  0.00    -0.267 OA
ENDBRANCH   1   9
BRANCH   8  16
ATOM     16  C   UNL d   1       5.315 -32.549 -13.775  0.00  0.00    -0.024 A 
ATOM     17  C   UNL d   1       6.210 -31.919 -14.652  0.00  0.00     0.012 A 
ATOM     18  C   UNL d   1       5.722 -31.112 -15.651  0.00  0.00     0.002 A 
ATOM     19  C   UNL d   1       4.363 -30.889 -15.833  0.00  0.00     0.012 A 
ATOM     20  C   UNL d   1       3.488 -31.501 -14.979  0.00  0.00    -0.022 A 
ATOM     21  C   UNL d   1       3.984 -32.324 -13.961  0.00  0.00     0.024 A 
BRANCH  20  22
ATOM     22  C   UNL d   1       2.061 -31.302 -15.134  0.00  0.00     0.014 A 
ATOM     23  C   UNL d   1       1.205 -30.796 -14.182  0.00  0.00     0.038 A 
ATOM     24  C   UNL d   1      -0.160 -30.656 -14.424  0.00  0.00     0.054 A 
ATOM     25  C   UNL d   1      -1.055 -30.166 -13.450  0.00  0.00     0.100 C 
ATOM     26  C   UNL d   1      -0.689 -31.027 -15.652  0.00  0.00    -0.011 A 
ATOM     27  N   UNL d   1      -1.830 -29.762 -12.633  0.00  0.00    -0.191 NA
ATOM     28  C   UNL d   1       0.144 -31.533 -16.617  0.00  0.00     0.054 A 
ATOM     29  C   UNL d   1       1.491 -31.666 -16.357  0.00  0.00     0.128 A 
ATOM     30  F   UNL d   1       2.271 -32.173 -17.346  0.00  0.00    -0.205 F 
BRANCH  26  31
ATOM     31  C   UNL d   1      -2.150 -30.864 -15.935  0.00  0.00     0.204 C 
BRANCH  31  32
ATOM     32  O   UNL d   1      -2.361 -30.861 -17.308  0.00  0.00    -0.396 OA
ATOM     33  H   UNL d   1      -3.243 -30.505 -17.498  0.00  0.00     0.209 HD
ENDBRANCH  31  32
ENDBRANCH  26  31
ENDBRANCH  20  22
ENDBRANCH   8  16
TORSDOF 5
ENDMDL
MODEL 6
REMARK VINA RESULT:      -9.5      2.526      5.269
REMARK  5 active torsions:
REMARK  status: ('A' for Active; 'I' for Inactive)
REMARK       I    between atoms: C_2  and  N_4 
REMARK       I    between atoms: N_4  and  C_5 
REMARK    1  A    between atoms: C_5  and  C_7 
REMARK    2  A    between atoms: C_14  and  C_15 
REMARK    3  A    between atoms: C_19  and  C_20 
REMARK    4  A    between atoms: C_25  and  C_26 
REMARK    5  A    between atoms: C_26  and  O_27 
ROOT
ATOM      1  C   UNL d   1       2.901 -31.432  -9.615  0.00  0.00     0.064 A 
ATOM      2  C   UNL d   1       3.235 -30.768  -8.411  0.00  0.00     0.061 A 
ATOM      3  C   UNL d   1       2.134 -30.463  -7.489  0.00  0.00     0.100 C 
ATOM      4  N   UNL d   1       1.279 -30.245  -6.762  0.00  0.00    -0.191 NA
ATOM      5  C   UNL d   1       4.519 -30.408  -8.121  0.00  0.00     0.024 A 
ATOM      6  C   UNL d   1       5.490 -30.712  -9.047  0.00  0.00     0.002 A 
ATOM      7  C   UNL d   1       5.182 -31.352 -10.218  0.00  0.00     0.013 A 
ATOM      8  C   UNL d   1       3.864 -31.731 -10.538  0.00  0.00    -0.009 A 
ENDROOT
BRANCH   1   9
ATOM      9  C   UNL d   1       1.519 -31.785  -9.854  0.00  0.00     0.260 C 
ATOM     10  N   UNL d   1       0.526 -30.891 -10.316  0.00  0.00    -0.294 N 
ATOM     11  C   UNL d   1      -0.826 -31.352 -10.493  0.00  0.00     0.220 C 
ATOM     12  H   UNL d   1       0.757 -29.955 -10.516  0.00  0.00     0.172 HD
ATOM     13  C   UNL d   1      -1.924 -30.494 -10.988  0.00  0.00     0.117 C 
ATOM     14  O   UNL d   1      -1.091 -32.549 -10.214  0.00  0.00    -0.274 OA
ATOM     15  O   UNL d   1       1.169 -32.987  -9.642  0.00  0.00    -0.267 OA
ENDBRANCH   1   9
BRANCH   8  16
ATOM     16  C   UNL d   1       3.608 -32.310 -11.858  0.00  0.00    -0.024 A 
ATOM     17  C   UNL d   1       4.294 -33.444 -12.319  0.00  0.00     0.012 A 
ATOM     18  C   UNL d   1       3.989 -33.960 -13.554  0.00  0.00     0.002 A 
ATOM     19  C   UNL d   1       3.020 -33.403 -14.380  0.00  0.00     0.012 A 
ATOM     20  C   UNL d   1       2.351 -32.297 -13.933  0.00  0.00    -0.022 A 
ATOM     21  C   UNL d   1       2.660 -31.769 -12.674  0.00  0.00     0.024 A 
BRANCH  20  22
ATOM     22  C   UNL d   1       1.329 -31.685 -14.757  0.00  0.00     0.014 A 
ATOM     23  C   UNL d   1       0.156 -31.122 -14.309  0.00  0.00     0.038 A 
ATOM     24  C   UNL d   1      -0.775 -30.568 -15.187  0.00  0.00     0.054 A 
ATOM     25  C   UNL d   1      -1.994 -30.013 -14.746  0.00  0.00     0.100 C 
ATOM     26  C   UNL d   1      -0.528 -30.574 -16.553  0.00  0.00    -0.011 A 
ATOM     27  N   UNL d   1      -3.037 -29.546 -14.391  0.00  0.00    -0.191 NA
ATOM     28  C   UNL d   1       0.633 -31.129 -17.023  0.00  0.00     0.054 A 
ATOM     29  C   UNL d   1       1.540 -31.673 -16.139  0.00  0.00     0.128 A 
ATOM     30  F   UNL d   1       2.674 -32.210 -16.658  0.00  0.00    -0.205 F 
BRANCH  26  31
ATOM     31  C   UNL d   1      -1.508 -29.967 -17.507  0.00  0.00     0.204 C 
BRANCH  31  32
ATOM     32  O   UNL d   1      -2.262 -30.969 -18.103  0.00  0.00    -0.396 OA
ATOM     33  H   UNL d   1      -1.929 -31.136 -18.999  0.00  0.00     0.209 HD
ENDBRANCH  31  32
ENDBRANCH  26  31
ENDBRANCH  20  22
ENDBRANCH   8  16
TORSDOF 5
ENDMDL
MODEL 7
REMARK VINA RESULT:      -9.5      2.183      3.167
REMARK  5 active torsions:
REMARK  status: ('A' for Active; 'I' for Inactive)
REMARK       I    between atoms: C_2  and  N_4 
REMARK       I    between atoms: N_4  and  C_5 
REMARK    1  A    between atoms: C_5  and  C_7 
REMARK    2  A    between atoms: C_14  and  C_15 
REMARK    3  A    between atoms: C_19  and  C_20 
REMARK    4  A    between atoms: C_25  and  C_26 
REMARK    5  A    between atoms: C_26  and  O_27 
ROOT
ATOM      1  C   UNL d   1      -0.917 -29.026  -6.967  0.00  0.00     0.064 A 
ATOM      2  C   UNL d   1      -0.217 -28.493  -5.859  0.00  0.00     0.061 A 
ATOM      3  C   UNL d   1       0.649 -29.412  -5.111  0.00  0.00     0.100 C 
ATOM      4  N   UNL d   1       1.339 -30.124  -4.541  0.00  0.00    -0.191 NA
ATOM      5  C   UNL d   1      -0.350 -27.187  -5.485  0.00  0.00     0.024 A 
ATOM      6  C   UNL d   1      -1.196 -26.396  -6.227  0.00  0.00     0.002 A 
ATOM      7  C   UNL d   1      -1.883 -26.898  -7.300  0.00  0.00     0.013 A 
ATOM      8  C   UNL d   1      -1.762 -28.242  -7.702  0.00  0.00    -0.009 A 
ENDROOT
BRANCH   1   9
ATOM      9  C   UNL d   1      -0.725 -30.419  -7.306  0.00  0.00     0.260 C 
ATOM     10  N   UNL d   1       0.266 -30.904  -8.190  0.00  0.00    -0.294 N 
ATOM     11  C   UNL d   1       0.346 -32.314  -8.472  0.00  0.00     0.220 C 
ATOM     12  H   UNL d   1       0.899 -30.280  -8.614  0.00  0.00     0.172 HD
ATOM     13  C   UNL d   1       1.359 -32.911  -9.368  0.00  0.00     0.117 C 
ATOM     14  O   UNL d   1      -0.487 -33.080  -7.926  0.00  0.00    -0.274 OA
ATOM     15  O   UNL d   1      -1.493 -31.273  -6.766  0.00  0.00    -0.267 OA
ENDBRANCH   1   9
BRANCH   8  16
ATOM     16  C   UNL d   1      -2.616 -28.723  -8.790  0.00  0.00    -0.024 A 
ATOM     17  C   UNL d   1      -4.003 -28.865  -8.639  0.00  0.00     0.012 A 
ATOM     18  C   UNL d   1      -4.758 -29.292  -9.704  0.00  0.00     0.002 A 
ATOM     19  C   UNL d   1      -4.202 -29.593 -10.941  0.00  0.00     0.012 A 
ATOM     20  C   UNL d   1      -2.849 -29.456 -11.091  0.00  0.00    -0.022 A 
ATOM     21  C   UNL d   1      -2.078 -29.020 -10.006  0.00  0.00     0.024 A 
BRANCH  20  22
ATOM     22  C   UNL d   1      -2.226 -29.753 -12.364  0.00  0.00     0.014 A 
ATOM     23  C   UNL d   1      -0.932 -30.186 -12.552  0.00  0.00     0.038 A 
ATOM     24  C   UNL d   1      -0.419 -30.432 -13.824  0.00  0.00     0.054 A 
ATOM     25  C   UNL d   1       0.912 -30.848 -14.036  0.00  0.00     0.100 C 
ATOM     26  C   UNL d   1      -1.218 -30.245 -14.943  0.00  0.00    -0.011 A 
ATOM     27  N   UNL d   1       2.040 -31.193 -14.234  0.00  0.00    -0.191 NA
ATOM     28  C   UNL d   1      -2.510 -29.815 -14.781  0.00  0.00     0.054 A 
ATOM     29  C   UNL d   1      -2.998 -29.574 -13.515  0.00  0.00     0.128 A 
ATOM     30  F   UNL d   1      -4.284 -29.150 -13.411  0.00  0.00    -0.205 F 
BRANCH  26  31
ATOM     31  C   UNL d   1      -0.689 -30.524 -16.315  0.00  0.00     0.204 C 
BRANCH  31  32
ATOM     32  O   UNL d   1      -1.741 -30.580 -17.218  0.00  0.00    -0.396 OA
ATOM     33  H   UNL d   1      -1.392 -30.562 -18.124  0.00  0.00     0.209 HD
ENDBRANCH  31  32
ENDBRANCH  26  31
ENDBRANCH  20  22
ENDBRANCH   8  16
TORSDOF 5
ENDMDL
MODEL 8
REMARK VINA RESULT:      -9.4      3.001      5.378
REMARK  5 active torsions:
REMARK  status: ('A' for Active; 'I' for Inactive)
REMARK       I    between atoms: C_2  and  N_4 
REMARK       I    between atoms: N_4  and  C_5 
REMARK    1  A    between atoms: C_5  and  C_7 
REMARK    2  A    between atoms: C_14  and  C_15 
REMARK    3  A    between atoms: C_19  and  C_20 
REMARK    4  A    between atoms: C_25  and  C_26 
REMARK    5  A    between atoms: C_26  and  O_27 
ROOT
ATOM      1  C   UNL d   1       0.925 -31.315  -6.703  0.00  0.00     0.064 A 
ATOM      2  C   UNL d   1       0.423 -30.465  -5.690  0.00  0.00     0.061 A 
ATOM      3  C   UNL d   1      -0.954 -29.981  -5.845  0.00  0.00     0.100 C 
ATOM      4  N   UNL d   1      -2.034 -29.621  -5.957  0.00  0.00    -0.191 NA
ATOM      5  C   UNL d   1       1.186 -30.092  -4.621  0.00  0.00     0.024 A 
ATOM      6  C   UNL d   1       2.473 -30.573  -4.560  0.00  0.00     0.002 A 
ATOM      7  C   UNL d   1       2.974 -31.395  -5.535  0.00  0.00     0.013 A 
ATOM      8  C   UNL d   1       2.205 -31.790  -6.645  0.00  0.00    -0.009 A 
ENDROOT
BRANCH   1   9
ATOM      9  C   UNL d   1       0.058 -31.671  -7.805  0.00  0.00     0.260 C 
ATOM     10  N   UNL d   1      -0.173 -30.864  -8.943  0.00  0.00    -0.294 N 
ATOM     11  C   UNL d   1      -1.080 -31.313  -9.967  0.00  0.00     0.220 C 
ATOM     12  H   UNL d   1       0.285 -29.997  -9.035  0.00  0.00     0.172 HD
ATOM     13  C   UNL d   1      -1.366 -30.544 -11.198  0.00  0.00     0.117 C 
ATOM     14  O   UNL d   1      -1.658 -32.417  -9.810  0.00  0.00    -0.274 OA
ATOM     15  O   UNL d   1      -0.537 -32.792  -7.755  0.00  0.00    -0.267 OA
ENDBRANCH   1   9
BRANCH   8  16
ATOM     16  C   UNL d   1       2.854 -32.579  -7.695  0.00  0.00    -0.024 A 
ATOM     17  C   UNL d   1       3.220 -33.919  -7.499  0.00  0.00     0.012 A 
ATOM     18  C   UNL d   1       3.797 -34.618  -8.531  0.00  0.00     0.002 A 
ATOM     19  C   UNL d   1       4.039 -34.051  -9.776  0.00  0.00     0.012 A 
ATOM     20  C   UNL d   1       3.684 -32.744  -9.968  0.00  0.00    -0.022 A 
ATOM     21  C   UNL d   1       3.094 -32.030  -8.918  0.00  0.00     0.024 A 
BRANCH  20  22
ATOM     22  C   UNL d   1       3.912 -32.111 -11.252  0.00  0.00     0.014 A 
ATOM     23  C   UNL d   1       3.011 -32.035 -12.289  0.00  0.00     0.038 A 
ATOM     24  C   UNL d   1       3.333 -31.415 -13.496  0.00  0.00     0.054 A 
ATOM     25  C   UNL d   1       2.431 -31.353 -14.579  0.00  0.00     0.100 C 
ATOM     26  C   UNL d   1       4.589 -30.852 -13.673  0.00  0.00    -0.011 A 
ATOM     27  N   UNL d   1       1.682 -31.298 -15.510  0.00  0.00    -0.191 NA
ATOM     28  C   UNL d   1       5.503 -30.915 -12.654  0.00  0.00     0.054 A 
ATOM     29  C   UNL d   1       5.167 -31.535 -11.469  0.00  0.00     0.128 A 
ATOM     30  F   UNL d   1       6.109 -31.570 -10.493  0.00  0.00    -0.205 F 
BRANCH  26  31
ATOM     31  C   UNL d   1       4.943 -30.165 -14.955  0.00  0.00     0.204 C 
BRANCH  31  32
ATOM     32  O   UNL d   1       5.466 -28.908 -14.682  0.00  0.00    -0.396 OA
ATOM     33  H   UNL d   1       6.247 -28.755 -15.236  0.00  0.00     0.209 HD
ENDBRANCH  31  32
ENDBRANCH  26  31
ENDBRANCH  20  22
ENDBRANCH   8  16
TORSDOF 5
ENDMDL
MODEL 9
REMARK VINA RESULT:      -9.3      1.846      2.358
REMARK  5 active torsions:
REMARK  status: ('A' for Active; 'I' for Inactive)
REMARK       I    between atoms: C_2  and  N_4 
REMARK       I    between atoms: N_4  and  C_5 
REMARK    1  A    between atoms: C_5  and  C_7 
REMARK    2  A    between atoms: C_14  and  C_15 
REMARK    3  A    between atoms: C_19  and  C_20 
REMARK    4  A    between atoms: C_25  and  C_26 
REMARK    5  A    between atoms: C_26  and  O_27 
ROOT
ATOM      1  C   UNL d   1      -2.931 -30.090 -10.328  0.00  0.00     0.064 A 
ATOM      2  C   UNL d   1      -3.505 -29.804  -9.067  0.00  0.00     0.061 A 
ATOM      3  C   UNL d   1      -2.939 -30.496  -7.904  0.00  0.00     0.100 C 
ATOM      4  N   UNL d   1      -2.484 -31.020  -6.995  0.00  0.00    -0.191 NA
ATOM      5  C   UNL d   1      -4.552 -28.938  -8.933  0.00  0.00     0.024 A 
ATOM      6  C   UNL d   1      -5.037 -28.345 -10.076  0.00  0.00     0.002 A 
ATOM      7  C   UNL d   1      -4.494 -28.614 -11.304  0.00  0.00     0.013 A 
ATOM      8  C   UNL d   1      -3.416 -29.505 -11.465  0.00  0.00    -0.009 A 
ENDROOT
BRANCH   1   9
ATOM      9  C   UNL d   1      -1.823 -31.016 -10.393  0.00  0.00     0.260 C 
ATOM     10  N   UNL d   1      -0.483 -30.694 -10.073  0.00  0.00    -0.294 N 
ATOM     11  C   UNL d   1       0.544 -31.696 -10.200  0.00  0.00     0.220 C 
ATOM     12  H   UNL d   1      -0.252 -29.788  -9.765  0.00  0.00     0.172 HD
ATOM     13  C   UNL d   1       1.965 -31.454  -9.871  0.00  0.00     0.117 C 
ATOM     14  O   UNL d   1       0.217 -32.838 -10.611  0.00  0.00    -0.274 OA
ATOM     15  O   UNL d   1      -2.065 -32.208 -10.755  0.00  0.00    -0.267 OA
ENDBRANCH   1   9
BRANCH   8  16
ATOM     16  C   UNL d   1      -2.970 -29.819 -12.824  0.00  0.00    -0.024 A 
ATOM     17  C   UNL d   1      -3.846 -29.791 -13.919  0.00  0.00     0.012 A 
ATOM     18  C   UNL d   1      -3.364 -30.065 -15.176  0.00  0.00     0.002 A 
ATOM     19  C   UNL d   1      -2.031 -30.374 -15.414  0.00  0.00     0.012 A 
ATOM     20  C   UNL d   1      -1.175 -30.403 -14.347  0.00  0.00    -0.022 A 
ATOM     21  C   UNL d   1      -1.664 -30.123 -13.066  0.00  0.00     0.024 A 
BRANCH  20  22
ATOM     22  C   UNL d   1       0.226 -30.715 -14.549  0.00  0.00     0.014 A 
ATOM     23  C   UNL d   1       0.770 -31.319 -15.660  0.00  0.00     0.038 A 
ATOM     24  C   UNL d   1       2.134 -31.591 -15.753  0.00  0.00     0.054 A 
ATOM     25  C   UNL d   1       2.702 -32.235 -16.872  0.00  0.00     0.100 C 
ATOM     26  C   UNL d   1       2.982 -31.250 -14.709  0.00  0.00    -0.011 A 
ATOM     27  N   UNL d   1       3.200 -32.787 -17.808  0.00  0.00    -0.191 NA
ATOM     28  C   UNL d   1       2.463 -30.647 -13.592  0.00  0.00     0.054 A 
ATOM     29  C   UNL d   1       1.111 -30.389 -13.518  0.00  0.00     0.128 A 
ATOM     30  F   UNL d   1       0.650 -29.791 -12.390  0.00  0.00    -0.205 F 
BRANCH  26  31
ATOM     31  C   UNL d   1       4.451 -31.517 -14.801  0.00  0.00     0.204 C 
BRANCH  31  32
ATOM     32  O   UNL d   1       5.151 -30.508 -14.153  0.00  0.00    -0.396 OA
ATOM     33  H   UNL d   1       4.685 -29.665 -14.271  0.00  0.00     0.209 HD
ENDBRANCH  31  32
ENDBRANCH  26  31
ENDBRANCH  20  22
ENDBRANCH   8  16
TORSDOF 5
ENDMDL
