
     RDKit          3D

 31 33  0  0  0  0  0  0  0  0999 V2000
    2.9556    3.3790   -1.2900 C   0  0  0  0  0  0  0  0  0  0  0  0
    3.5025    2.0475   -1.6284 C   0  0  0  0  0  0  0  0  0  0  0  0
    4.4986    1.9924   -2.3914 O   0  0  0  0  0  0  0  0  0  0  0  0
    2.9536    0.8133   -1.1280 N   0  0  0  0  0  0  0  0  0  0  0  0
    3.5504   -0.4177   -1.4879 C   0  0  0  0  0  0  0  0  0  0  0  0
    4.5819   -0.3724   -2.2261 O   0  0  0  0  0  0  0  0  0  0  0  0
    3.0751   -1.7185   -1.0692 C   0  0  0  0  0  0  0  0  0  0  0  0
    4.0162   -2.7578   -0.8833 C   0  0  0  0  0  0  0  0  0  0  0  0
    5.4228   -2.4421   -1.1539 C   0  0  0  0  0  0  0  0  0  0  0  0
    6.5223   -2.1895   -1.3463 N   0  0  0  0  0  0  0  0  0  0  0  0
    3.6373   -4.0082   -0.4864 C   0  0  0  0  0  0  0  0  0  0  0  0
    2.2963   -4.2277   -0.2710 C   0  0  0  0  0  0  0  0  0  0  0  0
    1.3726   -3.2322   -0.4501 C   0  0  0  0  0  0  0  0  0  0  0  0
    1.7415   -1.9367   -0.8603 C   0  0  0  0  0  0  0  0  0  0  0  0
    0.6815   -0.9647   -1.1344 C   0  0  0  0  0  0  0  0  0  0  0  0
    0.5708   -0.3137   -2.3720 C   0  0  0  0  0  0  0  0  0  0  0  0
   -0.4631    0.5654   -2.5818 C   0  0  0  0  0  0  0  0  0  0  0  0
   -1.4170    0.8427   -1.6108 C   0  0  0  0  0  0  0  0  0  0  0  0
   -1.3114    0.2101   -0.4028 C   0  0  0  0  0  0  0  0  0  0  0  0
   -2.2860    0.4652    0.6380 C   0  0  0  0  0  0  0  0  0  0  0  0
   -2.7295    1.7024    1.0484 C   0  0  0  0  0  0  0  0  0  0  0  0
   -3.6626    1.8438    2.0726 C   0  0  0  0  0  0  0  0  0  0  0  0
   -4.1055    3.1046    2.5240 C   0  0  0  0  0  0  0  0  0  0  0  0
   -4.4862    4.1658    2.9255 N   0  0  0  0  0  0  0  0  0  0  0  0
   -4.1728    0.7201    2.7071 C   0  0  0  0  0  0  0  0  0  0  0  0
   -5.1911    0.8538    3.7963 C   0  0  0  0  0  0  0  0  0  0  0  0
   -4.5749    1.2989    4.9581 O   0  0  0  0  0  0  0  0  0  0  0  0
   -3.7468   -0.5235    2.3163 C   0  0  0  0  0  0  0  0  0  0  0  0
   -2.8213   -0.6418    1.3022 C   0  0  0  0  0  0  0  0  0  0  0  0
   -2.4325   -1.8963    0.9535 F   0  0  0  0  0  0  0  0  0  0  0  0
   -0.2577   -0.6867   -0.1866 C   0  0  0  0  0  0  0  0  0  0  0  0
  1  2  1  0
  2  3  2  0
  2  4  1  0
  4  5  1  0
  5  6  2  0
  5  7  1  0
  7  8  2  0
  8  9  1  0
  9 10  3  0
  8 11  1  0
 11 12  2  0
 12 13  1  0
 13 14  2  0
 14 15  1  0
 15 16  2  0
 16 17  1  0
 17 18  2  0
 18 19  1  0
 19 20  1  0
 20 21  2  0
 21 22  1  0
 22 23  1  0
 23 24  3  0
 22 25  2  0
 25 26  1  0
 26 27  1  0
 25 28  1  0
 28 29  2  0
 29 30  1  0
 19 31  2  0
 14  7  1  0
 31 15  1  0
 29 20  1  0
M  END
$$$$
