REMARK  5 active torsions:
REMARK  status: ('A' for Active; 'I' for Inactive)
REMARK    1  A    between atoms: O_2  and  C_3 
REMARK    2  A    between atoms: C_5  and  C_12 
REMARK    3  A    between atoms: C_7  and  O_10 
REMARK    4  A    between atoms: C_8  and  O_9 
REMARK    5  A    between atoms: C_13  and  C_14 
ROOT
ATOM      1  C   UNL d   1      -1.931  -0.786  -0.254  0.00  0.00     0.104 A 
ATOM      2  C   UNL d   1      -0.638  -1.206  -0.081  0.00  0.00     0.051 A 
ATOM      3  C   UNL d   1       0.407  -0.289   0.082  0.00  0.00    -0.030 A 
ATOM      4  C   UNL d   1       0.135   1.055   0.070  0.00  0.00     0.051 A 
ATOM      5  C   UNL d   1      -1.178   1.502  -0.104  0.00  0.00     0.104 A 
ATOM      6  C   UNL d   1      -2.178   0.565  -0.262  0.00  0.00     0.133 A 
ENDROOT
BRANCH   3   7
ATOM      7  C   UNL d   1       1.771  -0.807   0.262  0.00  0.00     0.018 C 
ATOM      8  C   UNL d   1       2.815  -0.058   0.423  0.00  0.00     0.085 C 
BRANCH   8   9
ATOM      9  C   UNL d   1       4.151  -0.655   0.597  0.00  0.00     0.198 C 
ATOM     10  O   UNL d   1       5.163   0.061   0.752  0.00  0.00    -0.645 OA
ATOM     11  O   UNL d   1       4.260  -2.025   0.586  0.00  0.00    -0.645 OA
ENDBRANCH   8   9
ENDBRANCH   3   7
BRANCH   1  12
ATOM     12  O   UNL d   1      -2.961  -1.725  -0.415  0.00  0.00    -0.353 OA
ATOM     13  C   UNL d   1      -2.653  -3.096  -0.399  0.00  0.00     0.210 C 
ENDBRANCH   1  12
BRANCH   5  14
ATOM     14  O   UNL d   1      -1.458   2.871  -0.117  0.00  0.00    -0.353 OA
ATOM     15  C   UNL d   1      -0.429   3.799   0.045  0.00  0.00     0.210 C 
ENDBRANCH   5  14
BRANCH   6  16
ATOM     16  O   UNL d   1      -3.481   0.982  -0.435  0.00  0.00    -0.356 OA
ATOM     17  H   UNL d   1      -3.682   1.897  -0.446  0.00  0.00     0.218 HD
ENDBRANCH   6  16
TORSDOF 5
