
     RDKit          3D

 16 16  0  0  0  0  0  0  0  0999 V2000
   -2.6532   -3.0961   -0.3989 C   0  0  0  0  0  0  0  0  0  0  0  0
   -2.9610   -1.7247   -0.4153 O   0  0  0  0  0  0  0  0  0  0  0  0
   -1.9314   -0.7857   -0.2535 C   0  0  0  0  0  0  0  0  0  0  0  0
   -0.6380   -1.2063   -0.0813 C   0  0  0  0  0  0  0  0  0  0  0  0
    0.4074   -0.2892    0.0823 C   0  0  0  0  0  0  0  0  0  0  0  0
    0.1346    1.0554    0.0703 C   0  0  0  0  0  0  0  0  0  0  0  0
   -1.1782    1.5016   -0.1042 C   0  0  0  0  0  0  0  0  0  0  0  0
   -2.1775    0.5654   -0.2617 C   0  0  0  0  0  0  0  0  0  0  0  0
   -3.4807    0.9824   -0.4354 O   0  0  0  0  0  0  0  0  0  0  0  0
   -1.4580    2.8707   -0.1167 O   0  0  0  0  0  0  0  0  0  0  0  0
   -0.4290    3.7989    0.0448 C   0  0  0  0  0  0  0  0  0  0  0  0
    1.7709   -0.8070    0.2624 C   0  0  0  0  0  0  0  0  0  0  0  0
    2.8150   -0.0581    0.4226 C   0  0  0  0  0  0  0  0  0  0  0  0
    4.1509   -0.6551    0.5973 C   0  0  0  0  0  0  0  0  0  0  0  0
    5.1634    0.0609    0.7525 O   0  0  0  0  0  0  0  0  0  0  0  0
    4.2595   -2.0248    0.5858 O   0  0  0  0  0  0  0  0  0  0  0  0
  1  2  1  0
  2  3  1  0
  3  4  2  0
  4  5  1  0
  5  6  2  0
  6  7  1  0
  7  8  2  0
  8  9  1  0
  7 10  1  0
 10 11  1  0
  5 12  1  0
 12 13  2  0
 13 14  1  0
 14 15  2  0
 14 16  1  0
  8  3  1  0
M  END
$$$$
