MODEL 1
REMARK VINA RESULT:      -7.4      0.000      0.000
REMARK  6 active torsions:
REMARK  status: ('A' for Active; 'I' for Inactive)
REMARK    1  A    between atoms: C_2  and  C_3 
REMARK    2  A    between atoms: C_3  and  C_4 
REMARK    3  A    between atoms: C_7  and  C_8 
REMARK    4  A    between atoms: C_19  and  C_20 
REMARK    5  A    between atoms: C_23  and  C_24 
REMARK       I    between atoms: C_24  and  N_26 
REMARK    6  A    between atoms: C_28  and  C_29 
REMARK       I    between atoms: C_29  and  N_30 
ROOT
ATOM      1  C   UNL d   1      19.931 -47.252  51.823  0.00  0.00    -0.022 A 
ATOM      2  C   UNL d   1      21.295 -47.502  51.944  0.00  0.00     0.020 A 
ATOM      3  C   UNL d   1      21.746 -48.791  51.794  0.00  0.00    -0.037 A 
ATOM      4  C   UNL d   1      23.214 -49.028  51.920  0.00  0.00     0.050 C 
ATOM      5  C   UNL d   1      20.892 -49.826  51.531  0.00  0.00     0.089 A 
ATOM      6  C   UNL d   1      21.354 -51.175  51.347  0.00  0.00     0.103 C 
ATOM      7  N   UNL d   1      21.722 -52.244  51.183  0.00  0.00    -0.191 NA
ATOM      8  C   UNL d   1      19.507 -49.571  51.412  0.00  0.00     0.138 A 
ATOM      9  F   UNL d   1      18.655 -50.586  51.165  0.00  0.00    -0.204 F 
ATOM     10  C   UNL d   1      19.087 -48.275  51.565  0.00  0.00     0.056 A 
ENDROOT
BRANCH   1  11
ATOM     11  C   UNL d   1      19.408 -45.874  51.931  0.00  0.00    -0.025 A 
ATOM     12  C   UNL d   1      19.873 -44.858  51.160  0.00  0.00     0.013 A 
ATOM     13  C   UNL d   1      19.348 -43.571  51.238  0.00  0.00     0.013 A 
ATOM     14  C   UNL d   1      18.302 -43.330  52.151  0.00  0.00    -0.025 A 
ATOM     15  C   UNL d   1      17.825 -44.318  52.925  0.00  0.00    -0.015 A 
ATOM     16  C   UNL d   1      18.401 -45.612  52.802  0.00  0.00     0.025 A 
BRANCH  14  17
ATOM     17  C   UNL d   1      17.683 -41.974  52.161  0.00  0.00     0.008 C 
BRANCH  17  18
ATOM     18  C   UNL d   1      16.698 -41.660  51.339  0.00  0.00    -0.030 C 
ATOM     19  C   UNL d   1      15.677 -41.815  50.461  0.00  0.00     0.036 C 
ENDBRANCH  17  18
ENDBRANCH  14  17
BRANCH  15  20
ATOM     20  C   UNL d   1      16.717 -44.192  53.863  0.00  0.00    -0.024 A 
ATOM     21  C   UNL d   1      17.086 -43.948  55.193  0.00  0.00     0.013 A 
ATOM     22  C   UNL d   1      16.161 -43.760  56.181  0.00  0.00     0.019 A 
ATOM     23  C   UNL d   1      14.802 -43.816  55.854  0.00  0.00     0.046 A 
ATOM     24  C   UNL d   1      14.406 -44.054  54.561  0.00  0.00     0.034 A 
ATOM     25  C   UNL d   1      15.391 -44.242  53.564  0.00  0.00     0.029 A 
BRANCH  23  26
ATOM     26  C   UNL d   1      13.896 -43.573  56.944  0.00  0.00     0.252 C 
ATOM     27  O   UNL d   1      13.798 -42.367  57.373  0.00  0.00    -0.268 OA
ATOM     28  N   UNL d   1      13.113 -44.528  57.607  0.00  0.00    -0.361 N 
ATOM     29  C   UNL d   1      12.267 -44.197  58.741  0.00  0.00     0.149 C 
ATOM     30  H   UNL d   1      13.138 -45.460  57.291  0.00  0.00     0.162 HD
ENDBRANCH  23  26
BRANCH  24  31
ATOM     31  C   UNL d   1      13.017 -44.142  54.190  0.00  0.00     0.183 C 
ATOM     32  N   UNL d   1      12.268 -43.167  53.564  0.00  0.00    -0.377 N 
ATOM     33  H   UNL d   1      12.679 -42.304  53.330  0.00  0.00     0.158 HD
ATOM     34  H   UNL d   1      11.321 -43.336  53.350  0.00  0.00     0.158 HD
ATOM     35  O   UNL d   1      12.441 -45.271  54.484  0.00  0.00    -0.172 OA
ENDBRANCH  24  31
ENDBRANCH  15  20
ENDBRANCH   1  11
TORSDOF 6
ENDMDL
MODEL 2
REMARK VINA RESULT:      -7.3      4.729      6.756
REMARK  6 active torsions:
REMARK  status: ('A' for Active; 'I' for Inactive)
REMARK    1  A    between atoms: C_2  and  C_3 
REMARK    2  A    between atoms: C_3  and  C_4 
REMARK    3  A    between atoms: C_7  and  C_8 
REMARK    4  A    between atoms: C_19  and  C_20 
REMARK    5  A    between atoms: C_23  and  C_24 
REMARK       I    between atoms: C_24  and  N_26 
REMARK    6  A    between atoms: C_28  and  C_29 
REMARK       I    between atoms: C_29  and  N_30 
ROOT
ATOM      1  C   UNL d   1      20.560 -51.159  52.147  0.00  0.00    -0.022 A 
ATOM      2  C   UNL d   1      19.717 -52.266  52.148  0.00  0.00     0.020 A 
ATOM      3  C   UNL d   1      20.270 -53.516  52.297  0.00  0.00    -0.037 A 
ATOM      4  C   UNL d   1      19.341 -54.684  52.303  0.00  0.00     0.050 C 
ATOM      5  C   UNL d   1      21.617 -53.694  52.444  0.00  0.00     0.089 A 
ATOM      6  C   UNL d   1      22.205 -54.994  52.626  0.00  0.00     0.103 C 
ATOM      7  N   UNL d   1      22.670 -56.024  52.789  0.00  0.00    -0.191 NA
ATOM      8  C   UNL d   1      22.471 -52.569  52.440  0.00  0.00     0.138 A 
ATOM      9  F   UNL d   1      23.803 -52.734  52.572  0.00  0.00    -0.204 F 
ATOM     10  C   UNL d   1      21.892 -51.335  52.291  0.00  0.00     0.056 A 
ENDROOT
BRANCH   1  11
ATOM     11  C   UNL d   1      20.006 -49.794  52.036  0.00  0.00    -0.025 A 
ATOM     12  C   UNL d   1      18.798 -49.544  51.466  0.00  0.00     0.013 A 
ATOM     13  C   UNL d   1      18.264 -48.261  51.399  0.00  0.00     0.013 A 
ATOM     14  C   UNL d   1      19.009 -47.196  51.945  0.00  0.00    -0.025 A 
ATOM     15  C   UNL d   1      20.205 -47.417  52.514  0.00  0.00    -0.015 A 
ATOM     16  C   UNL d   1      20.701 -48.749  52.552  0.00  0.00     0.025 A 
BRANCH  14  17
ATOM     17  C   UNL d   1      18.387 -45.842  51.955  0.00  0.00     0.008 C 
BRANCH  17  18
ATOM     18  C   UNL d   1      18.775 -44.899  51.116  0.00  0.00    -0.030 C 
ATOM     19  C   UNL d   1      19.484 -43.860  50.611  0.00  0.00     0.036 C 
ENDBRANCH  17  18
ENDBRANCH  14  17
BRANCH  15  20
ATOM     20  C   UNL d   1      21.034 -46.403  53.151  0.00  0.00    -0.024 A 
ATOM     21  C   UNL d   1      22.178 -46.030  52.433  0.00  0.00     0.013 A 
ATOM     22  C   UNL d   1      23.031 -45.058  52.877  0.00  0.00     0.019 A 
ATOM     23  C   UNL d   1      22.752 -44.417  54.089  0.00  0.00     0.046 A 
ATOM     24  C   UNL d   1      21.640 -44.759  54.818  0.00  0.00     0.034 A 
ATOM     25  C   UNL d   1      20.780 -45.768  54.327  0.00  0.00     0.029 A 
BRANCH  23  26
ATOM     26  C   UNL d   1      23.678 -43.384  54.465  0.00  0.00     0.252 C 
ATOM     27  O   UNL d   1      23.246 -42.174  54.468  0.00  0.00    -0.268 OA
ATOM     28  N   UNL d   1      25.024 -43.557  54.816  0.00  0.00    -0.361 N 
ATOM     29  C   UNL d   1      25.903 -42.443  55.128  0.00  0.00     0.149 C 
ATOM     30  H   UNL d   1      25.388 -44.471  54.854  0.00  0.00     0.162 HD
ENDBRANCH  23  26
BRANCH  24  31
ATOM     31  C   UNL d   1      21.333 -44.138  56.081  0.00  0.00     0.183 C 
ATOM     32  N   UNL d   1      20.649 -42.956  56.273  0.00  0.00    -0.377 N 
ATOM     33  H   UNL d   1      20.320 -42.445  55.499  0.00  0.00     0.158 HD
ATOM     34  H   UNL d   1      20.489 -42.623  57.186  0.00  0.00     0.158 HD
ATOM     35  O   UNL d   1      21.753 -44.787  57.128  0.00  0.00    -0.172 OA
ENDBRANCH  24  31
ENDBRANCH  15  20
ENDBRANCH   1  11
TORSDOF 6
ENDMDL
MODEL 3
REMARK VINA RESULT:      -7.2      2.260      4.025
REMARK  6 active torsions:
REMARK  status: ('A' for Active; 'I' for Inactive)
REMARK    1  A    between atoms: C_2  and  C_3 
REMARK    2  A    between atoms: C_3  and  C_4 
REMARK    3  A    between atoms: C_7  and  C_8 
REMARK    4  A    between atoms: C_19  and  C_20 
REMARK    5  A    between atoms: C_23  and  C_24 
REMARK       I    between atoms: C_24  and  N_26 
REMARK    6  A    between atoms: C_28  and  C_29 
REMARK       I    between atoms: C_29  and  N_30 
ROOT
ATOM      1  C   UNL d   1      21.090 -47.813  53.061  0.00  0.00    -0.022 A 
ATOM      2  C   UNL d   1      22.343 -48.368  53.307  0.00  0.00     0.020 A 
ATOM      3  C   UNL d   1      22.647 -49.586  52.748  0.00  0.00    -0.037 A 
ATOM      4  C   UNL d   1      24.000 -50.151  53.023  0.00  0.00     0.050 C 
ATOM      5  C   UNL d   1      21.755 -50.260  51.962  0.00  0.00     0.089 A 
ATOM      6  C   UNL d   1      22.070 -51.523  51.352  0.00  0.00     0.103 C 
ATOM      7  N   UNL d   1      22.327 -52.517  50.851  0.00  0.00    -0.191 NA
ATOM      8  C   UNL d   1      20.483 -49.697  51.715  0.00  0.00     0.138 A 
ATOM      9  F   UNL d   1      19.590 -50.359  50.951  0.00  0.00    -0.204 F 
ATOM     10  C   UNL d   1      20.208 -48.480  52.285  0.00  0.00     0.056 A 
ENDROOT
BRANCH   1  11
ATOM     11  C   UNL d   1      20.737 -46.485  53.603  0.00  0.00    -0.025 A 
ATOM     12  C   UNL d   1      21.484 -45.867  54.554  0.00  0.00     0.013 A 
ATOM     13  C   UNL d   1      21.169 -44.599  55.033  0.00  0.00     0.013 A 
ATOM     14  C   UNL d   1      20.036 -43.946  54.504  0.00  0.00    -0.025 A 
ATOM     15  C   UNL d   1      19.282 -44.536  53.563  0.00  0.00    -0.015 A 
ATOM     16  C   UNL d   1      19.652 -45.834  53.113  0.00  0.00     0.025 A 
BRANCH  14  17
ATOM     17  C   UNL d   1      19.761 -42.552  54.952  0.00  0.00     0.008 C 
BRANCH  17  18
ATOM     18  C   UNL d   1      19.057 -42.304  56.041  0.00  0.00    -0.030 C 
ATOM     19  C   UNL d   1      18.379 -42.524  57.194  0.00  0.00     0.036 C 
ENDBRANCH  17  18
ENDBRANCH  14  17
BRANCH  15  20
ATOM     20  C   UNL d   1      18.125 -43.936  52.913  0.00  0.00    -0.024 A 
ATOM     21  C   UNL d   1      18.344 -43.480  51.606  0.00  0.00     0.013 A 
ATOM     22  C   UNL d   1      17.344 -42.936  50.849  0.00  0.00     0.019 A 
ATOM     23  C   UNL d   1      16.062 -42.829  51.399  0.00  0.00     0.046 A 
ATOM     24  C   UNL d   1      15.814 -43.264  52.677  0.00  0.00     0.034 A 
ATOM     25  C   UNL d   1      16.872 -43.823  53.430  0.00  0.00     0.029 A 
BRANCH  23  26
ATOM     26  C   UNL d   1      15.063 -42.278  50.525  0.00  0.00     0.252 C 
ATOM     27  O   UNL d   1      14.938 -41.000  50.500  0.00  0.00    -0.268 OA
ATOM     28  N   UNL d   1      14.187 -42.998  49.699  0.00  0.00    -0.361 N 
ATOM     29  C   UNL d   1      13.167 -42.355  48.889  0.00  0.00     0.149 C 
ATOM     30  H   UNL d   1      14.268 -43.979  49.667  0.00  0.00     0.162 HD
ENDBRANCH  23  26
BRANCH  24  31
ATOM     31  C   UNL d   1      14.513 -43.147  53.286  0.00  0.00     0.183 C 
ATOM     32  N   UNL d   1      14.026 -42.063  53.986  0.00  0.00    -0.377 N 
ATOM     33  H   UNL d   1      14.588 -41.265  54.113  0.00  0.00     0.158 HD
ATOM     34  H   UNL d   1      13.115 -42.087  54.358  0.00  0.00     0.158 HD
ATOM     35  O   UNL d   1      13.742 -44.185  53.137  0.00  0.00    -0.172 OA
ENDBRANCH  24  31
ENDBRANCH  15  20
ENDBRANCH   1  11
TORSDOF 6
ENDMDL
MODEL 4
REMARK VINA RESULT:      -6.9      4.727      7.229
REMARK  6 active torsions:
REMARK  status: ('A' for Active; 'I' for Inactive)
REMARK    1  A    between atoms: C_2  and  C_3 
REMARK    2  A    between atoms: C_3  and  C_4 
REMARK    3  A    between atoms: C_7  and  C_8 
REMARK    4  A    between atoms: C_19  and  C_20 
REMARK    5  A    between atoms: C_23  and  C_24 
REMARK       I    between atoms: C_24  and  N_26 
REMARK    6  A    between atoms: C_28  and  C_29 
REMARK       I    between atoms: C_29  and  N_30 
ROOT
ATOM      1  C   UNL d   1      20.807 -51.915  52.186  0.00  0.00    -0.022 A 
ATOM      2  C   UNL d   1      19.990 -53.030  52.350  0.00  0.00     0.020 A 
ATOM      3  C   UNL d   1      20.578 -54.262  52.512  0.00  0.00    -0.037 A 
ATOM      4  C   UNL d   1      19.677 -55.437  52.694  0.00  0.00     0.050 C 
ATOM      5  C   UNL d   1      21.936 -54.416  52.515  0.00  0.00     0.089 A 
ATOM      6  C   UNL d   1      22.563 -55.695  52.708  0.00  0.00     0.103 C 
ATOM      7  N   UNL d   1      23.062 -56.708  52.880  0.00  0.00    -0.191 NA
ATOM      8  C   UNL d   1      22.764 -53.283  52.346  0.00  0.00     0.138 A 
ATOM      9  F   UNL d   1      24.105 -53.426  52.335  0.00  0.00    -0.204 F 
ATOM     10  C   UNL d   1      22.150 -52.068  52.188  0.00  0.00     0.056 A 
ENDROOT
BRANCH   1  11
ATOM     11  C   UNL d   1      20.219 -50.566  52.055  0.00  0.00    -0.025 A 
ATOM     12  C   UNL d   1      18.980 -50.360  51.539  0.00  0.00     0.013 A 
ATOM     13  C   UNL d   1      18.416 -49.091  51.454  0.00  0.00     0.013 A 
ATOM     14  C   UNL d   1      19.166 -47.993  51.925  0.00  0.00    -0.025 A 
ATOM     15  C   UNL d   1      20.393 -48.170  52.440  0.00  0.00    -0.015 A 
ATOM     16  C   UNL d   1      20.918 -49.490  52.499  0.00  0.00     0.025 A 
BRANCH  14  17
ATOM     17  C   UNL d   1      18.517 -46.651  51.919  0.00  0.00     0.008 C 
BRANCH  17  18
ATOM     18  C   UNL d   1      17.952 -46.154  53.004  0.00  0.00    -0.030 C 
ATOM     19  C   UNL d   1      17.703 -45.926  54.317  0.00  0.00     0.036 C 
ENDBRANCH  17  18
ENDBRANCH  14  17
BRANCH  15  20
ATOM     20  C   UNL d   1      21.231 -47.118  52.999  0.00  0.00    -0.024 A 
ATOM     21  C   UNL d   1      21.973 -46.386  52.062  0.00  0.00     0.013 A 
ATOM     22  C   UNL d   1      22.770 -45.337  52.426  0.00  0.00     0.019 A 
ATOM     23  C   UNL d   1      22.849 -44.985  53.778  0.00  0.00     0.046 A 
ATOM     24  C   UNL d   1      22.136 -45.682  54.721  0.00  0.00     0.034 A 
ATOM     25  C   UNL d   1      21.320 -46.761  54.308  0.00  0.00     0.029 A 
BRANCH  23  26
ATOM     26  C   UNL d   1      23.681 -43.850  54.070  0.00  0.00     0.252 C 
ATOM     27  O   UNL d   1      24.896 -43.885  53.656  0.00  0.00    -0.268 OA
ATOM     28  N   UNL d   1      23.307 -42.702  54.782  0.00  0.00    -0.361 N 
ATOM     29  C   UNL d   1      24.237 -41.626  55.079  0.00  0.00     0.149 C 
ATOM     30  H   UNL d   1      22.376 -42.621  55.093  0.00  0.00     0.162 HD
ENDBRANCH  23  26
BRANCH  24  31
ATOM     31  C   UNL d   1      22.210 -45.365  56.125  0.00  0.00     0.183 C 
ATOM     32  N   UNL d   1      23.094 -45.894  57.042  0.00  0.00    -0.377 N 
ATOM     33  H   UNL d   1      23.758 -46.562  56.759  0.00  0.00     0.158 HD
ATOM     34  H   UNL d   1      23.061 -45.601  57.982  0.00  0.00     0.158 HD
ATOM     35  O   UNL d   1      21.346 -44.482  56.534  0.00  0.00    -0.172 OA
ENDBRANCH  24  31
ENDBRANCH  15  20
ENDBRANCH   1  11
TORSDOF 6
ENDMDL
MODEL 5
REMARK VINA RESULT:      -6.9      7.619     13.471
REMARK  6 active torsions:
REMARK  status: ('A' for Active; 'I' for Inactive)
REMARK    1  A    between atoms: C_2  and  C_3 
REMARK    2  A    between atoms: C_3  and  C_4 
REMARK    3  A    between atoms: C_7  and  C_8 
REMARK    4  A    between atoms: C_19  and  C_20 
REMARK    5  A    between atoms: C_23  and  C_24 
REMARK       I    between atoms: C_24  and  N_26 
REMARK    6  A    between atoms: C_28  and  C_29 
REMARK       I    between atoms: C_29  and  N_30 
ROOT
ATOM      1  C   UNL d   1      20.572 -51.813  52.078  0.00  0.00    -0.022 A 
ATOM      2  C   UNL d   1      21.762 -51.100  51.964  0.00  0.00     0.020 A 
ATOM      3  C   UNL d   1      21.701 -49.748  51.721  0.00  0.00    -0.037 A 
ATOM      4  C   UNL d   1      22.993 -49.009  51.613  0.00  0.00     0.050 C 
ATOM      5  C   UNL d   1      20.508 -49.094  51.589  0.00  0.00     0.089 A 
ATOM      6  C   UNL d   1      20.431 -47.677  51.360  0.00  0.00     0.103 C 
ATOM      7  N   UNL d   1      20.369 -46.548  51.196  0.00  0.00    -0.191 NA
ATOM      8  C   UNL d   1      19.301 -49.820  51.702  0.00  0.00     0.138 A 
ATOM      9  F   UNL d   1      18.119 -49.186  51.561  0.00  0.00    -0.204 F 
ATOM     10  C   UNL d   1      19.393 -51.166  51.946  0.00  0.00     0.056 A 
ENDROOT
BRANCH   1  11
ATOM     11  C   UNL d   1      20.589 -53.258  52.384  0.00  0.00    -0.025 A 
ATOM     12  C   UNL d   1      19.467 -54.022  52.345  0.00  0.00     0.013 A 
ATOM     13  C   UNL d   1      19.496 -55.391  52.597  0.00  0.00     0.013 A 
ATOM     14  C   UNL d   1      20.736 -55.990  52.899  0.00  0.00    -0.025 A 
ATOM     15  C   UNL d   1      21.859 -55.256  52.943  0.00  0.00    -0.015 A 
ATOM     16  C   UNL d   1      21.768 -53.861  52.679  0.00  0.00     0.025 A 
BRANCH  14  17
ATOM     17  C   UNL d   1      20.773 -57.469  53.072  0.00  0.00     0.008 C 
BRANCH  17  18
ATOM     18  C   UNL d   1      19.764 -58.233  52.695  0.00  0.00    -0.030 C 
ATOM     19  C   UNL d   1      19.022 -59.077  51.936  0.00  0.00     0.036 C 
ENDBRANCH  17  18
ENDBRANCH  14  17
BRANCH  15  20
ATOM     20  C   UNL d   1      23.196 -55.777  53.195  0.00  0.00    -0.024 A 
ATOM     21  C   UNL d   1      24.038 -54.930  53.929  0.00  0.00     0.013 A 
ATOM     22  C   UNL d   1      25.306 -55.297  54.286  0.00  0.00     0.019 A 
ATOM     23  C   UNL d   1      25.777 -56.558  53.903  0.00  0.00     0.046 A 
ATOM     24  C   UNL d   1      24.979 -57.411  53.183  0.00  0.00     0.034 A 
ATOM     25  C   UNL d   1      23.672 -56.998  52.833  0.00  0.00     0.029 A 
BRANCH  23  26
ATOM     26  C   UNL d   1      27.107 -56.877  54.348  0.00  0.00     0.252 C 
ATOM     27  O   UNL d   1      27.277 -58.004  54.940  0.00  0.00    -0.268 OA
ATOM     28  N   UNL d   1      28.247 -56.072  54.217  0.00  0.00    -0.361 N 
ATOM     29  C   UNL d   1      29.543 -56.455  54.751  0.00  0.00     0.149 C 
ATOM     30  H   UNL d   1      28.166 -55.212  53.744  0.00  0.00     0.162 HD
ENDBRANCH  23  26
BRANCH  24  31
ATOM     31  C   UNL d   1      25.438 -58.706  52.751  0.00  0.00     0.183 C 
ATOM     32  N   UNL d   1      25.344 -59.890  53.453  0.00  0.00    -0.377 N 
ATOM     33  H   UNL d   1      24.933 -59.901  54.347  0.00  0.00     0.158 HD
ATOM     34  H   UNL d   1      25.688 -60.724  53.059  0.00  0.00     0.158 HD
ATOM     35  O   UNL d   1      25.987 -58.728  51.571  0.00  0.00    -0.172 OA
ENDBRANCH  24  31
ENDBRANCH  15  20
ENDBRANCH   1  11
TORSDOF 6
ENDMDL
MODEL 6
REMARK VINA RESULT:      -6.8      4.072      5.113
REMARK  6 active torsions:
REMARK  status: ('A' for Active; 'I' for Inactive)
REMARK    1  A    between atoms: C_2  and  C_3 
REMARK    2  A    between atoms: C_3  and  C_4 
REMARK    3  A    between atoms: C_7  and  C_8 
REMARK    4  A    between atoms: C_19  and  C_20 
REMARK    5  A    between atoms: C_23  and  C_24 
REMARK       I    between atoms: C_24  and  N_26 
REMARK    6  A    between atoms: C_28  and  C_29 
REMARK       I    between atoms: C_29  and  N_30 
ROOT
ATOM      1  C   UNL d   1      20.242 -49.788  52.007  0.00  0.00    -0.022 A 
ATOM      2  C   UNL d   1      19.649 -51.027  51.783  0.00  0.00     0.020 A 
ATOM      3  C   UNL d   1      20.434 -52.154  51.843  0.00  0.00    -0.037 A 
ATOM      4  C   UNL d   1      19.770 -53.469  51.607  0.00  0.00     0.050 C 
ATOM      5  C   UNL d   1      21.772 -52.086  52.115  0.00  0.00     0.089 A 
ATOM      6  C   UNL d   1      22.598 -53.260  52.206  0.00  0.00     0.103 C 
ATOM      7  N   UNL d   1      23.250 -54.192  52.296  0.00  0.00    -0.191 NA
ATOM      8  C   UNL d   1      22.372 -50.827  52.340  0.00  0.00     0.138 A 
ATOM      9  F   UNL d   1      23.693 -50.747  52.597  0.00  0.00    -0.204 F 
ATOM     10  C   UNL d   1      21.565 -49.720  52.275  0.00  0.00     0.056 A 
ENDROOT
BRANCH   1  11
ATOM     11  C   UNL d   1      19.428 -48.554  51.998  0.00  0.00    -0.025 A 
ATOM     12  C   UNL d   1      18.357 -48.397  51.179  0.00  0.00     0.013 A 
ATOM     13  C   UNL d   1      17.571 -47.249  51.203  0.00  0.00     0.013 A 
ATOM     14  C   UNL d   1      17.909 -46.225  52.112  0.00  0.00    -0.025 A 
ATOM     15  C   UNL d   1      18.963 -46.357  52.932  0.00  0.00    -0.015 A 
ATOM     16  C   UNL d   1      19.731 -47.552  52.862  0.00  0.00     0.025 A 
BRANCH  14  17
ATOM     17  C   UNL d   1      17.007 -45.042  52.198  0.00  0.00     0.008 C 
BRANCH  17  18
ATOM     18  C   UNL d   1      17.169 -43.993  51.413  0.00  0.00    -0.030 C 
ATOM     19  C   UNL d   1      17.141 -42.705  50.989  0.00  0.00     0.036 C 
ENDBRANCH  17  18
ENDBRANCH  14  17
BRANCH  15  20
ATOM     20  C   UNL d   1      19.371 -45.388  53.941  0.00  0.00    -0.024 A 
ATOM     21  C   UNL d   1      19.020 -45.714  55.258  0.00  0.00     0.013 A 
ATOM     22  C   UNL d   1      19.374 -44.929  56.320  0.00  0.00     0.019 A 
ATOM     23  C   UNL d   1      20.107 -43.762  56.082  0.00  0.00     0.046 A 
ATOM     24  C   UNL d   1      20.466 -43.413  54.804  0.00  0.00     0.034 A 
ATOM     25  C   UNL d   1      20.085 -44.250  53.730  0.00  0.00     0.029 A 
BRANCH  23  26
ATOM     26  C   UNL d   1      20.467 -43.013  57.256  0.00  0.00     0.252 C 
ATOM     27  O   UNL d   1      19.606 -42.175  57.710  0.00  0.00    -0.268 OA
ATOM     28  N   UNL d   1      21.680 -43.089  57.955  0.00  0.00    -0.361 N 
ATOM     29  C   UNL d   1      21.977 -42.249  59.102  0.00  0.00     0.149 C 
ATOM     30  H   UNL d   1      22.357 -43.739  57.657  0.00  0.00     0.162 HD
ENDBRANCH  23  26
BRANCH  24  31
ATOM     31  C   UNL d   1      21.200 -42.206  54.518  0.00  0.00     0.183 C 
ATOM     32  N   UNL d   1      22.568 -42.041  54.579  0.00  0.00    -0.377 N 
ATOM     33  H   UNL d   1      23.144 -42.793  54.844  0.00  0.00     0.158 HD
ATOM     34  H   UNL d   1      22.969 -41.169  54.357  0.00  0.00     0.158 HD
ATOM     35  O   UNL d   1      20.469 -41.190  54.164  0.00  0.00    -0.172 OA
ENDBRANCH  24  31
ENDBRANCH  15  20
ENDBRANCH   1  11
TORSDOF 6
ENDMDL
MODEL 7
REMARK VINA RESULT:      -6.6      5.509      9.388
REMARK  6 active torsions:
REMARK  status: ('A' for Active; 'I' for Inactive)
REMARK    1  A    between atoms: C_2  and  C_3 
REMARK    2  A    between atoms: C_3  and  C_4 
REMARK    3  A    between atoms: C_7  and  C_8 
REMARK    4  A    between atoms: C_19  and  C_20 
REMARK    5  A    between atoms: C_23  and  C_24 
REMARK       I    between atoms: C_24  and  N_26 
REMARK    6  A    between atoms: C_28  and  C_29 
REMARK       I    between atoms: C_29  and  N_30 
ROOT
ATOM      1  C   UNL d   1      26.229 -53.118  53.513  0.00  0.00    -0.022 A 
ATOM      2  C   UNL d   1      25.027 -53.693  53.108  0.00  0.00     0.020 A 
ATOM      3  C   UNL d   1      24.997 -55.042  52.844  0.00  0.00    -0.037 A 
ATOM      4  C   UNL d   1      23.694 -55.632  52.421  0.00  0.00     0.050 C 
ATOM      5  C   UNL d   1      26.111 -55.824  52.969  0.00  0.00     0.089 A 
ATOM      6  C   UNL d   1      26.087 -57.240  52.720  0.00  0.00     0.103 C 
ATOM      7  N   UNL d   1      26.064 -58.367  52.540  0.00  0.00    -0.191 NA
ATOM      8  C   UNL d   1      27.330 -55.237  53.377  0.00  0.00     0.138 A 
ATOM      9  F   UNL d   1      28.438 -55.998  53.491  0.00  0.00    -0.204 F 
ATOM     10  C   UNL d   1      27.330 -53.891  53.634  0.00  0.00     0.056 A 
ENDROOT
BRANCH   1  11
ATOM     11  C   UNL d   1      26.296 -51.681  53.852  0.00  0.00    -0.025 A 
ATOM     12  C   UNL d   1      27.407 -51.112  54.388  0.00  0.00     0.013 A 
ATOM     13  C   UNL d   1      27.478 -49.751  54.669  0.00  0.00     0.013 A 
ATOM     14  C   UNL d   1      26.355 -48.949  54.380  0.00  0.00    -0.025 A 
ATOM     15  C   UNL d   1      25.246 -49.487  53.849  0.00  0.00    -0.015 A 
ATOM     16  C   UNL d   1      25.230 -50.884  53.586  0.00  0.00     0.025 A 
BRANCH  14  17
ATOM     17  C   UNL d   1      26.474 -47.479  54.594  0.00  0.00     0.008 C 
BRANCH  17  18
ATOM     18  C   UNL d   1      27.551 -46.813  54.220  0.00  0.00    -0.030 C 
ATOM     19  C   UNL d   1      28.567 -46.376  53.436  0.00  0.00     0.036 C 
ENDBRANCH  17  18
ENDBRANCH  14  17
BRANCH  15  20
ATOM     20  C   UNL d   1      24.051 -48.747  53.467  0.00  0.00    -0.024 A 
ATOM     21  C   UNL d   1      23.547 -49.043  52.193  0.00  0.00     0.013 A 
ATOM     22  C   UNL d   1      22.406 -48.465  51.710  0.00  0.00     0.019 A 
ATOM     23  C   UNL d   1      21.721 -47.547  52.514  0.00  0.00     0.046 A 
ATOM     24  C   UNL d   1      22.188 -47.234  53.766  0.00  0.00     0.034 A 
ATOM     25  C   UNL d   1      23.371 -47.852  54.234  0.00  0.00     0.029 A 
BRANCH  23  26
ATOM     26  C   UNL d   1      20.514 -47.014  51.945  0.00  0.00     0.252 C 
ATOM     27  O   UNL d   1      20.621 -45.975  51.198  0.00  0.00    -0.268 OA
ATOM     28  N   UNL d   1      19.214 -47.504  52.135  0.00  0.00    -0.361 N 
ATOM     29  C   UNL d   1      18.043 -46.862  51.563  0.00  0.00     0.149 C 
ATOM     30  H   UNL d   1      19.090 -48.316  52.678  0.00  0.00     0.162 HD
ENDBRANCH  23  26
BRANCH  24  31
ATOM     31  C   UNL d   1      21.524 -46.275  54.612  0.00  0.00     0.183 C 
ATOM     32  N   UNL d   1      20.461 -46.520  55.457  0.00  0.00    -0.377 N 
ATOM     33  H   UNL d   1      20.079 -47.425  55.520  0.00  0.00     0.158 HD
ATOM     34  H   UNL d   1      20.084 -45.789  55.998  0.00  0.00     0.158 HD
ATOM     35  O   UNL d   1      22.003 -45.067  54.555  0.00  0.00    -0.172 OA
ENDBRANCH  24  31
ENDBRANCH  15  20
ENDBRANCH   1  11
TORSDOF 6
ENDMDL
MODEL 8
REMARK VINA RESULT:      -6.6      7.806     14.033
REMARK  6 active torsions:
REMARK  status: ('A' for Active; 'I' for Inactive)
REMARK    1  A    between atoms: C_2  and  C_3 
REMARK    2  A    between atoms: C_3  and  C_4 
REMARK    3  A    between atoms: C_7  and  C_8 
REMARK    4  A    between atoms: C_19  and  C_20 
REMARK    5  A    between atoms: C_23  and  C_24 
REMARK       I    between atoms: C_24  and  N_26 
REMARK    6  A    between atoms: C_28  and  C_29 
REMARK       I    between atoms: C_29  and  N_30 
ROOT
ATOM      1  C   UNL d   1      22.227 -51.887  52.383  0.00  0.00    -0.022 A 
ATOM      2  C   UNL d   1      23.193 -50.933  52.690  0.00  0.00     0.020 A 
ATOM      3  C   UNL d   1      22.950 -49.620  52.367  0.00  0.00    -0.037 A 
ATOM      4  C   UNL d   1      24.000 -48.619  52.716  0.00  0.00     0.050 C 
ATOM      5  C   UNL d   1      21.792 -49.232  51.754  0.00  0.00     0.089 A 
ATOM      6  C   UNL d   1      21.516 -47.858  51.432  0.00  0.00     0.103 C 
ATOM      7  N   UNL d   1      21.288 -46.765  51.193  0.00  0.00    -0.191 NA
ATOM      8  C   UNL d   1      20.813 -50.202  51.439  0.00  0.00     0.138 A 
ATOM      9  F   UNL d   1      19.672 -49.832  50.824  0.00  0.00    -0.204 F 
ATOM     10  C   UNL d   1      21.082 -51.503  51.775  0.00  0.00     0.056 A 
ENDROOT
BRANCH   1  11
ATOM     11  C   UNL d   1      22.425 -53.303  52.754  0.00  0.00    -0.025 A 
ATOM     12  C   UNL d   1      21.449 -54.236  52.608  0.00  0.00     0.013 A 
ATOM     13  C   UNL d   1      21.655 -55.576  52.923  0.00  0.00     0.013 A 
ATOM     14  C   UNL d   1      22.921 -55.963  53.406  0.00  0.00    -0.025 A 
ATOM     15  C   UNL d   1      23.902 -55.060  53.559  0.00  0.00    -0.015 A 
ATOM     16  C   UNL d   1      23.634 -53.704  53.223  0.00  0.00     0.025 A 
BRANCH  14  17
ATOM     17  C   UNL d   1      23.162 -57.414  53.650  0.00  0.00     0.008 C 
BRANCH  17  18
ATOM     18  C   UNL d   1      23.766 -58.172  52.754  0.00  0.00    -0.030 C 
ATOM     19  C   UNL d   1      24.741 -58.647  51.940  0.00  0.00     0.036 C 
ENDBRANCH  17  18
ENDBRANCH  14  17
BRANCH  15  20
ATOM     20  C   UNL d   1      25.258 -55.357  54.002  0.00  0.00    -0.024 A 
ATOM     21  C   UNL d   1      26.204 -55.492  52.977  0.00  0.00     0.013 A 
ATOM     22  C   UNL d   1      27.527 -55.723  53.234  0.00  0.00     0.019 A 
ATOM     23  C   UNL d   1      27.947 -55.832  54.564  0.00  0.00     0.046 A 
ATOM     24  C   UNL d   1      27.046 -55.707  55.592  0.00  0.00     0.034 A 
ATOM     25  C   UNL d   1      25.687 -55.465  55.288  0.00  0.00     0.029 A 
BRANCH  23  26
ATOM     26  C   UNL d   1      29.358 -56.042  54.747  0.00  0.00     0.252 C 
ATOM     27  O   UNL d   1      29.750 -57.237  55.004  0.00  0.00    -0.268 OA
ATOM     28  N   UNL d   1      30.361 -55.064  54.691  0.00  0.00    -0.361 N 
ATOM     29  C   UNL d   1      31.760 -55.360  54.946  0.00  0.00     0.149 C 
ATOM     30  H   UNL d   1      30.107 -54.139  54.468  0.00  0.00     0.162 HD
ENDBRANCH  23  26
BRANCH  24  31
ATOM     31  C   UNL d   1      27.438 -55.837  56.972  0.00  0.00     0.183 C 
ATOM     32  N   UNL d   1      27.752 -57.007  57.632  0.00  0.00    -0.377 N 
ATOM     33  H   UNL d   1      27.716 -57.867  57.155  0.00  0.00     0.158 HD
ATOM     34  H   UNL d   1      28.014 -56.982  58.581  0.00  0.00     0.158 HD
ATOM     35  O   UNL d   1      27.497 -54.718  57.634  0.00  0.00    -0.172 OA
ENDBRANCH  24  31
ENDBRANCH  15  20
ENDBRANCH   1  11
TORSDOF 6
ENDMDL
MODEL 9
REMARK VINA RESULT:      -6.6      5.457      7.106
REMARK  6 active torsions:
REMARK  status: ('A' for Active; 'I' for Inactive)
REMARK    1  A    between atoms: C_2  and  C_3 
REMARK    2  A    between atoms: C_3  and  C_4 
REMARK    3  A    between atoms: C_7  and  C_8 
REMARK    4  A    between atoms: C_19  and  C_20 
REMARK    5  A    between atoms: C_23  and  C_24 
REMARK       I    between atoms: C_24  and  N_26 
REMARK    6  A    between atoms: C_28  and  C_29 
REMARK       I    between atoms: C_29  and  N_30 
ROOT
ATOM      1  C   UNL d   1      20.939 -51.133  52.280  0.00  0.00    -0.022 A 
ATOM      2  C   UNL d   1      20.002 -52.161  52.330  0.00  0.00     0.020 A 
ATOM      3  C   UNL d   1      20.448 -53.455  52.460  0.00  0.00    -0.037 A 
ATOM      4  C   UNL d   1      19.420 -54.535  52.519  0.00  0.00     0.050 C 
ATOM      5  C   UNL d   1      21.780 -53.753  52.539  0.00  0.00     0.089 A 
ATOM      6  C   UNL d   1      22.258 -55.099  52.700  0.00  0.00     0.103 C 
ATOM      7  N   UNL d   1      22.637 -56.166  52.846  0.00  0.00    -0.191 NA
ATOM      8  C   UNL d   1      22.729 -52.707  52.485  0.00  0.00     0.138 A 
ATOM      9  F   UNL d   1      24.046 -52.991  52.551  0.00  0.00    -0.204 F 
ATOM     10  C   UNL d   1      22.255 -51.427  52.357  0.00  0.00     0.056 A 
ENDROOT
BRANCH   1  11
ATOM     11  C   UNL d   1      20.503 -49.724  52.188  0.00  0.00    -0.025 A 
ATOM     12  C   UNL d   1      19.431 -49.343  51.447  0.00  0.00     0.013 A 
ATOM     13  C   UNL d   1      19.001 -48.020  51.395  0.00  0.00     0.013 A 
ATOM     14  C   UNL d   1      19.710 -47.057  52.142  0.00  0.00    -0.025 A 
ATOM     15  C   UNL d   1      20.774 -47.409  52.882  0.00  0.00    -0.015 A 
ATOM     16  C   UNL d   1      21.167 -48.776  52.895  0.00  0.00     0.025 A 
BRANCH  14  17
ATOM     17  C   UNL d   1      19.187 -45.661  52.157  0.00  0.00     0.008 C 
BRANCH  17  18
ATOM     18  C   UNL d   1      19.471 -44.808  51.190  0.00  0.00    -0.030 C 
ATOM     19  C   UNL d   1      19.354 -43.743  50.360  0.00  0.00     0.036 C 
ENDBRANCH  17  18
ENDBRANCH  14  17
BRANCH  15  20
ATOM     20  C   UNL d   1      21.546 -46.509  53.728  0.00  0.00    -0.024 A 
ATOM     21  C   UNL d   1      20.982 -46.237  54.981  0.00  0.00     0.013 A 
ATOM     22  C   UNL d   1      21.609 -45.448  55.905  0.00  0.00     0.019 A 
ATOM     23  C   UNL d   1      22.853 -44.893  55.586  0.00  0.00     0.046 A 
ATOM     24  C   UNL d   1      23.433 -45.138  54.366  0.00  0.00     0.034 A 
ATOM     25  C   UNL d   1      22.756 -45.960  53.436  0.00  0.00     0.029 A 
BRANCH  23  26
ATOM     26  C   UNL d   1      23.459 -44.106  56.625  0.00  0.00     0.252 C 
ATOM     27  O   UNL d   1      24.231 -44.713  57.453  0.00  0.00    -0.268 OA
ATOM     28  N   UNL d   1      23.281 -42.732  56.844  0.00  0.00    -0.361 N 
ATOM     29  C   UNL d   1      23.893 -42.030  57.959  0.00  0.00     0.149 C 
ATOM     30  H   UNL d   1      22.720 -42.223  56.215  0.00  0.00     0.162 HD
ENDBRANCH  23  26
BRANCH  24  31
ATOM     31  C   UNL d   1      24.701 -44.564  53.993  0.00  0.00     0.183 C 
ATOM     32  N   UNL d   1      24.912 -43.310  53.459  0.00  0.00    -0.377 N 
ATOM     33  H   UNL d   1      24.149 -42.710  53.293  0.00  0.00     0.158 HD
ATOM     34  H   UNL d   1      25.826 -43.014  53.244  0.00  0.00     0.158 HD
ATOM     35  O   UNL d   1      25.732 -45.331  54.199  0.00  0.00    -0.172 OA
ENDBRANCH  24  31
ENDBRANCH  15  20
ENDBRANCH   1  11
TORSDOF 6
ENDMDL
