REMARK  6 active torsions:
REMARK  status: ('A' for Active; 'I' for Inactive)
REMARK    1  A    between atoms: C_2  and  C_3 
REMARK    2  A    between atoms: C_3  and  C_4 
REMARK    3  A    between atoms: C_7  and  C_8 
REMARK    4  A    between atoms: C_19  and  C_20 
REMARK    5  A    between atoms: C_23  and  C_24 
REMARK       I    between atoms: C_24  and  N_26 
REMARK    6  A    between atoms: C_28  and  C_29 
REMARK       I    between atoms: C_29  and  N_30 
ROOT
ATOM      1  C   UNL d   1      -3.525   0.355  -0.804  0.00  0.00    -0.022 A 
ATOM      2  C   UNL d   1      -4.458   1.062  -1.557  0.00  0.00     0.020 A 
ATOM      3  C   UNL d   1      -5.659   0.462  -1.852  0.00  0.00    -0.037 A 
ATOM      4  C   UNL d   1      -6.643   1.247  -2.653  0.00  0.00     0.050 C 
ATOM      5  C   UNL d   1      -5.955  -0.803  -1.427  0.00  0.00     0.089 A 
ATOM      6  C   UNL d   1      -7.217  -1.432  -1.708  0.00  0.00     0.103 C 
ATOM      7  N   UNL d   1      -8.226  -1.925  -1.915  0.00  0.00    -0.191 NA
ATOM      8  C   UNL d   1      -5.005  -1.520  -0.665  0.00  0.00     0.138 A 
ATOM      9  F   UNL d   1      -5.282  -2.773  -0.251  0.00  0.00    -0.204 F 
ATOM     10  C   UNL d   1      -3.817  -0.896  -0.385  0.00  0.00     0.056 A 
ENDROOT
BRANCH   1  11
ATOM     11  C   UNL d   1      -2.240   0.978  -0.424  0.00  0.00    -0.025 A 
ATOM     12  C   UNL d   1      -2.120   2.310  -0.188  0.00  0.00     0.013 A 
ATOM     13  C   UNL d   1      -0.916   2.885   0.208  0.00  0.00     0.013 A 
ATOM     14  C   UNL d   1       0.206   2.046   0.366  0.00  0.00    -0.025 A 
ATOM     15  C   UNL d   1       0.113   0.726   0.139  0.00  0.00    -0.015 A 
ATOM     16  C   UNL d   1      -1.143   0.195  -0.265  0.00  0.00     0.025 A 
BRANCH  14  17
ATOM     17  C   UNL d   1       1.465   2.654   0.882  0.00  0.00     0.008 C 
BRANCH  17  18
ATOM     18  C   UNL d   1       1.470   3.839   1.464  0.00  0.00    -0.030 C 
ATOM     19  C   UNL d   1       1.009   5.011   1.966  0.00  0.00     0.036 C 
ENDBRANCH  17  18
ENDBRANCH  14  17
BRANCH  15  20
ATOM     20  C   UNL d   1       1.191  -0.237   0.319  0.00  0.00    -0.024 A 
ATOM     21  C   UNL d   1       0.868  -1.355   1.100  0.00  0.00     0.013 A 
ATOM     22  C   UNL d   1       1.758  -2.369   1.321  0.00  0.00     0.019 A 
ATOM     23  C   UNL d   1       3.033  -2.285   0.751  0.00  0.00     0.046 A 
ATOM     24  C   UNL d   1       3.382  -1.203  -0.018  0.00  0.00     0.034 A 
ATOM     25  C   UNL d   1       2.435  -0.174  -0.227  0.00  0.00     0.029 A 
BRANCH  23  26
ATOM     26  C   UNL d   1       3.894  -3.408   1.004  0.00  0.00     0.252 C 
ATOM     27  O   UNL d   1       3.818  -4.405   0.198  0.00  0.00    -0.268 OA
ATOM     28  N   UNL d   1       4.807  -3.539   2.060  0.00  0.00    -0.361 N 
ATOM     29  C   UNL d   1       5.597  -4.740   2.269  0.00  0.00     0.149 C 
ATOM     30  H   UNL d   1       4.917  -2.786   2.685  0.00  0.00     0.162 HD
ENDBRANCH  23  26
BRANCH  24  31
ATOM     31  C   UNL d   1       4.693  -1.070  -0.601  0.00  0.00     0.183 C 
ATOM     32  N   UNL d   1       5.149  -0.020  -1.371  0.00  0.00    -0.377 N 
ATOM     33  H   UNL d   1       4.554   0.737  -1.574  0.00  0.00     0.158 HD
ATOM     34  H   UNL d   1       6.071  -0.028  -1.717  0.00  0.00     0.158 HD
ATOM     35  O   UNL d   1       5.507  -2.054  -0.352  0.00  0.00    -0.172 OA
ENDBRANCH  24  31
ENDBRANCH  15  20
ENDBRANCH   1  11
TORSDOF 6
