
     RDKit          3D

 32 34  0  0  0  0  0  0  0  0999 V2000
    1.0089    5.0113    1.9659 C   0  0  0  0  0  0  0  0  0  0  0  0
    1.4701    3.8391    1.4638 C   0  0  0  0  0  0  0  0  0  0  0  0
    1.4651    2.6535    0.8817 C   0  0  0  0  0  0  0  0  0  0  0  0
    0.2059    2.0455    0.3659 C   0  0  0  0  0  0  0  0  0  0  0  0
   -0.9160    2.8849    0.2079 C   0  0  0  0  0  0  0  0  0  0  0  0
   -2.1201    2.3102   -0.1882 C   0  0  0  0  0  0  0  0  0  0  0  0
   -2.2400    0.9777   -0.4237 C   0  0  0  0  0  0  0  0  0  0  0  0
   -3.5246    0.3551   -0.8038 C   0  0  0  0  0  0  0  0  0  0  0  0
   -4.4579    1.0621   -1.5569 C   0  0  0  0  0  0  0  0  0  0  0  0
   -5.6589    0.4619   -1.8521 C   0  0  0  0  0  0  0  0  0  0  0  0
   -6.6434    1.2473   -2.6530 C   0  0  0  0  0  0  0  0  0  0  0  0
   -5.9553   -0.8031   -1.4268 C   0  0  0  0  0  0  0  0  0  0  0  0
   -7.2169   -1.4321   -1.7082 C   0  0  0  0  0  0  0  0  0  0  0  0
   -8.2264   -1.9252   -1.9145 N   0  0  0  0  0  0  0  0  0  0  0  0
   -5.0050   -1.5205   -0.6648 C   0  0  0  0  0  0  0  0  0  0  0  0
   -5.2819   -2.7735   -0.2506 F   0  0  0  0  0  0  0  0  0  0  0  0
   -3.8165   -0.8961   -0.3849 C   0  0  0  0  0  0  0  0  0  0  0  0
   -1.1433    0.1950   -0.2654 C   0  0  0  0  0  0  0  0  0  0  0  0
    0.1134    0.7257    0.1391 C   0  0  0  0  0  0  0  0  0  0  0  0
    1.1907   -0.2370    0.3186 C   0  0  0  0  0  0  0  0  0  0  0  0
    0.8683   -1.3552    1.0996 C   0  0  0  0  0  0  0  0  0  0  0  0
    1.7575   -2.3688    1.3214 C   0  0  0  0  0  0  0  0  0  0  0  0
    3.0331   -2.2848    0.7510 C   0  0  0  0  0  0  0  0  0  0  0  0
    3.8945   -3.4084    1.0042 C   0  0  0  0  0  0  0  0  0  0  0  0
    3.8185   -4.4052    0.1980 O   0  0  0  0  0  0  0  0  0  0  0  0
    4.8072   -3.5390    2.0601 N   0  0  0  0  0  0  0  0  0  0  0  0
    5.5969   -4.7396    2.2694 C   0  0  0  0  0  0  0  0  0  0  0  0
    3.3822   -1.2032   -0.0184 C   0  0  0  0  0  0  0  0  0  0  0  0
    4.6931   -1.0697   -0.6013 C   0  0  0  0  0  0  0  0  0  0  0  0
    5.1494   -0.0203   -1.3705 N   0  0  0  0  0  0  0  0  0  0  0  0
    5.5072   -2.0540   -0.3521 O   0  0  0  0  0  0  0  0  0  0  0  0
    2.4346   -0.1738   -0.2267 C   0  0  0  0  0  0  0  0  0  0  0  0
  1  2  1  0
  2  3  2  3
  3  4  1  0
  4  5  2  0
  5  6  1  0
  6  7  2  0
  7  8  1  0
  8  9  2  0
  9 10  1  0
 10 11  1  0
 10 12  2  0
 12 13  1  0
 13 14  3  0
 12 15  1  0
 15 16  1  0
 15 17  2  0
  7 18  1  0
 18 19  2  0
 19 20  1  0
 20 21  2  0
 21 22  1  0
 22 23  2  0
 23 24  1  0
 24 25  2  0
 24 26  1  0
 26 27  1  0
 23 28  1  0
 28 29  1  0
 29 30  1  0
 29 31  2  0
 28 32  2  0
 19  4  1  0
 32 20  1  0
 17  8  1  0
M  END
$$$$
