MODEL 1
REMARK VINA RESULT:      -8.7      0.000      0.000
REMARK  8 active torsions:
REMARK  status: ('A' for Active; 'I' for Inactive)
REMARK    1  A    between atoms: C_2  and  C_3 
REMARK    2  A    between atoms: C_6  and  C_7 
REMARK    3  A    between atoms: C_9  and  C_10 
REMARK    4  A    between atoms: C_12  and  C_13 
REMARK       I    between atoms: C_13  and  N_14 
REMARK    5  A    between atoms: C_18  and  C_19 
REMARK    6  A    between atoms: C_19  and  C_20 
REMARK    7  A    between atoms: C_20  and  N_21 
REMARK    8  A    between atoms: C_25  and  C_26 
REMARK       I    between atoms: C_26  and  N_28 
ROOT
ATOM      1  C   UNL d   1       2.459 -31.712 -13.444  0.00  0.00    -0.014 A 
ATOM      2  C   UNL d   1       3.309 -32.550 -12.524  0.00  0.00     0.030 A 
ATOM      3  C   UNL d   1       2.992 -32.784 -11.240  0.00  0.00     0.032 A 
ATOM      4  C   UNL d   1       1.853 -32.229 -10.787  0.00  0.00     0.018 A 
ATOM      5  C   UNL d   1       1.027 -31.479 -11.498  0.00  0.00     0.013 A 
ATOM      6  C   UNL d   1       1.407 -31.257 -12.859  0.00  0.00    -0.024 A 
ENDROOT
BRANCH   6   7
ATOM      7  C   UNL d   1       0.644 -30.024 -13.275  0.00  0.00     0.029 C 
BRANCH   7   8
ATOM      8  C   UNL d   1      -0.461 -29.869 -12.654  0.00  0.00     0.087 C 
BRANCH   8   9
ATOM      9  N   UNL d   1      -1.718 -29.805 -13.133  0.00  0.00    -0.377 N 
ATOM     10  C   UNL d   1      -1.857 -30.025 -14.621  0.00  0.00     0.123 C 
ATOM     11  C   UNL d   1      -3.136 -29.563 -15.038  0.00  0.00     0.022 C 
ATOM     12  C   UNL d   1      -3.938 -29.474 -13.814  0.00  0.00     0.037 C 
ATOM     13  C   UNL d   1      -2.968 -29.396 -12.678  0.00  0.00     0.175 C 
BRANCH  13  14
ATOM     14  C   UNL d   1      -3.546 -29.566 -11.354  0.00  0.00     0.240 C 
ATOM     15  O   UNL d   1      -2.971 -30.214 -10.454  0.00  0.00    -0.271 OA
ATOM     16  N   UNL d   1      -4.806 -28.989 -11.035  0.00  0.00    -0.364 N 
ATOM     17  C   UNL d   1      -5.387 -29.192  -9.667  0.00  0.00     0.149 C 
ATOM     18  H   UNL d   1      -5.294 -28.462 -11.707  0.00  0.00     0.161 HD
ENDBRANCH  13  14
ENDBRANCH   8   9
ENDBRANCH   7   8
ENDBRANCH   6   7
BRANCH   1  19
ATOM     19  C   UNL d   1       3.073 -31.489 -14.757  0.00  0.00    -0.014 A 
ATOM     20  C   UNL d   1       2.581 -31.748 -15.887  0.00  0.00    -0.026 A 
ATOM     21  C   UNL d   1       3.351 -31.766 -17.123  0.00  0.00     0.013 A 
ATOM     22  C   UNL d   1       4.669 -31.504 -17.008  0.00  0.00     0.012 A 
ATOM     23  C   UNL d   1       5.264 -31.227 -15.695  0.00  0.00    -0.036 A 
ATOM     24  C   UNL d   1       4.515 -31.209 -14.580  0.00  0.00     0.024 A 
BRANCH  20  25
ATOM     25  C   UNL d   1       1.122 -31.973 -16.088  0.00  0.00     0.002 C 
ATOM     26  C   UNL d   1       0.419 -31.315 -16.953  0.00  0.00     0.012 C 
ENDBRANCH  20  25
BRANCH  23  27
ATOM     27  C   UNL d   1       6.718 -30.946 -15.752  0.00  0.00     0.001 C 
ATOM     28  C   UNL d   1       7.285 -30.827 -16.906  0.00  0.00     0.012 C 
ENDBRANCH  23  27
ENDBRANCH   1  19
BRANCH   3  29
ATOM     29  C   UNL d   1       3.864 -33.664 -10.454  0.00  0.00     0.249 C 
ATOM     30  N   UNL d   1       4.672 -34.441 -11.490  0.00  0.00    -0.366 N 
ATOM     31  H   UNL d   1       4.545 -34.260 -12.449  0.00  0.00     0.159 HD
ATOM     32  H   UNL d   1       5.320 -35.123 -11.199  0.00  0.00     0.159 HD
ATOM     33  O   UNL d   1       3.955 -33.820  -9.286  0.00  0.00    -0.268 OA
ENDBRANCH   3  29
TORSDOF 8
ENDMDL
MODEL 2
REMARK VINA RESULT:      -8.3      2.405      7.056
REMARK  8 active torsions:
REMARK  status: ('A' for Active; 'I' for Inactive)
REMARK    1  A    between atoms: C_2  and  C_3 
REMARK    2  A    between atoms: C_6  and  C_7 
REMARK    3  A    between atoms: C_9  and  C_10 
REMARK    4  A    between atoms: C_12  and  C_13 
REMARK       I    between atoms: C_13  and  N_14 
REMARK    5  A    between atoms: C_18  and  C_19 
REMARK    6  A    between atoms: C_19  and  C_20 
REMARK    7  A    between atoms: C_20  and  N_21 
REMARK    8  A    between atoms: C_25  and  C_26 
REMARK       I    between atoms: C_26  and  N_28 
ROOT
ATOM      1  C   UNL d   1      -0.257 -30.623 -12.567  0.00  0.00    -0.014 A 
ATOM      2  C   UNL d   1      -0.825 -31.244 -11.317  0.00  0.00     0.030 A 
ATOM      3  C   UNL d   1      -0.073 -31.879 -10.404  0.00  0.00     0.032 A 
ATOM      4  C   UNL d   1       1.249 -31.944 -10.648  0.00  0.00     0.018 A 
ATOM      5  C   UNL d   1       1.862 -31.436 -11.705  0.00  0.00     0.013 A 
ATOM      6  C   UNL d   1       1.019 -30.770 -12.650  0.00  0.00    -0.024 A 
ENDROOT
BRANCH   6   7
ATOM      7  C   UNL d   1       1.817 -30.753 -13.930  0.00  0.00     0.029 C 
BRANCH   7   8
ATOM      8  C   UNL d   1       2.775 -31.597 -13.952  0.00  0.00     0.087 C 
BRANCH   8   9
ATOM      9  N   UNL d   1       4.024 -31.471 -14.439  0.00  0.00    -0.377 N 
ATOM     10  C   UNL d   1       4.115 -31.099 -15.900  0.00  0.00     0.123 C 
ATOM     11  C   UNL d   1       5.432 -31.370 -16.363  0.00  0.00     0.022 C 
ATOM     12  C   UNL d   1       6.257 -31.479 -15.157  0.00  0.00     0.037 C 
ATOM     13  C   UNL d   1       5.319 -31.774 -14.029  0.00  0.00     0.175 C 
BRANCH  13  14
ATOM     14  C   UNL d   1       5.893 -31.662 -12.697  0.00  0.00     0.240 C 
ATOM     15  O   UNL d   1       5.501 -30.810 -11.872  0.00  0.00    -0.271 OA
ATOM     16  N   UNL d   1       6.935 -32.537 -12.283  0.00  0.00    -0.364 N 
ATOM     17  C   UNL d   1       7.519 -32.391 -10.910  0.00  0.00     0.149 C 
ATOM     18  H   UNL d   1       7.272 -33.231 -12.894  0.00  0.00     0.161 HD
ENDBRANCH  13  14
ENDBRANCH   8   9
ENDBRANCH   7   8
ENDBRANCH   6   7
BRANCH   1  19
ATOM     19  C   UNL d   1      -1.284 -30.104 -13.475  0.00  0.00    -0.014 A 
ATOM     20  C   UNL d   1      -2.431 -29.680 -13.174  0.00  0.00    -0.026 A 
ATOM     21  C   UNL d   1      -3.493 -29.451 -14.144  0.00  0.00     0.013 A 
ATOM     22  C   UNL d   1      -3.199 -29.738 -15.428  0.00  0.00     0.012 A 
ATOM     23  C   UNL d   1      -1.875 -30.258 -15.794  0.00  0.00    -0.036 A 
ATOM     24  C   UNL d   1      -0.920 -30.445 -14.869  0.00  0.00     0.024 A 
BRANCH  20  25
ATOM     25  C   UNL d   1      -2.792 -29.277 -11.786  0.00  0.00     0.002 C 
ATOM     26  C   UNL d   1      -4.011 -29.239 -11.357  0.00  0.00     0.012 C 
ENDBRANCH  20  25
BRANCH  23  27
ATOM     27  C   UNL d   1      -1.718 -30.505 -17.246  0.00  0.00     0.001 C 
ATOM     28  C   UNL d   1      -0.580 -30.255 -17.802  0.00  0.00     0.012 C 
ENDBRANCH  23  27
ENDBRANCH   1  19
BRANCH   3  29
ATOM     29  C   UNL d   1      -0.727 -32.393  -9.195  0.00  0.00     0.249 C 
ATOM     30  N   UNL d   1       0.419 -32.787  -8.268  0.00  0.00    -0.366 N 
ATOM     31  H   UNL d   1       1.351 -32.641  -8.548  0.00  0.00     0.159 HD
ATOM     32  H   UNL d   1       0.226 -33.186  -7.389  0.00  0.00     0.159 HD
ATOM     33  O   UNL d   1      -1.871 -32.534  -8.936  0.00  0.00    -0.268 OA
ENDBRANCH   3  29
TORSDOF 8
ENDMDL
MODEL 3
REMARK VINA RESULT:      -8.3      2.708      5.472
REMARK  8 active torsions:
REMARK  status: ('A' for Active; 'I' for Inactive)
REMARK    1  A    between atoms: C_2  and  C_3 
REMARK    2  A    between atoms: C_6  and  C_7 
REMARK    3  A    between atoms: C_9  and  C_10 
REMARK    4  A    between atoms: C_12  and  C_13 
REMARK       I    between atoms: C_13  and  N_14 
REMARK    5  A    between atoms: C_18  and  C_19 
REMARK    6  A    between atoms: C_19  and  C_20 
REMARK    7  A    between atoms: C_20  and  N_21 
REMARK    8  A    between atoms: C_25  and  C_26 
REMARK       I    between atoms: C_26  and  N_28 
ROOT
ATOM      1  C   UNL d   1       1.549 -31.462 -13.607  0.00  0.00    -0.014 A 
ATOM      2  C   UNL d   1       2.808 -30.865 -14.180  0.00  0.00     0.030 A 
ATOM      3  C   UNL d   1       4.030 -31.098 -13.675  0.00  0.00     0.032 A 
ATOM      4  C   UNL d   1       4.096 -31.911 -12.604  0.00  0.00     0.018 A 
ATOM      5  C   UNL d   1       3.064 -32.495 -12.016  0.00  0.00     0.013 A 
ATOM      6  C   UNL d   1       1.784 -32.215 -12.590  0.00  0.00    -0.024 A 
ENDROOT
BRANCH   6   7
ATOM      7  C   UNL d   1       0.795 -32.537 -11.498  0.00  0.00     0.029 C 
BRANCH   7   8
ATOM      8  C   UNL d   1       1.338 -32.932 -10.411  0.00  0.00     0.087 C 
BRANCH   8   9
ATOM      9  N   UNL d   1       1.226 -32.439  -9.163  0.00  0.00    -0.377 N 
ATOM     10  C   UNL d   1       2.531 -32.162  -8.454  0.00  0.00     0.123 C 
ATOM     11  C   UNL d   1       2.278 -32.020  -7.062  0.00  0.00     0.022 C 
ATOM     12  C   UNL d   1       0.838 -31.768  -6.949  0.00  0.00     0.037 C 
ATOM     13  C   UNL d   1       0.221 -32.272  -8.214  0.00  0.00     0.175 C 
BRANCH  13  14
ATOM     14  C   UNL d   1      -1.166 -31.885  -8.428  0.00  0.00     0.240 C 
ATOM     15  O   UNL d   1      -1.953 -32.575  -9.109  0.00  0.00    -0.271 OA
ATOM     16  N   UNL d   1      -1.678 -30.688  -7.856  0.00  0.00    -0.364 N 
ATOM     17  C   UNL d   1      -3.107 -30.304  -8.103  0.00  0.00     0.149 C 
ATOM     18  H   UNL d   1      -1.099 -30.115  -7.304  0.00  0.00     0.161 HD
ENDBRANCH  13  14
ENDBRANCH   8   9
ENDBRANCH   7   8
ENDBRANCH   6   7
BRANCH   1  19
ATOM     19  C   UNL d   1       0.327 -30.960 -14.242  0.00  0.00    -0.014 A 
ATOM     20  C   UNL d   1      -0.644 -30.381 -13.687  0.00  0.00    -0.026 A 
ATOM     21  C   UNL d   1      -1.936 -30.169 -14.324  0.00  0.00     0.013 A 
ATOM     22  C   UNL d   1      -2.068 -30.650 -15.577  0.00  0.00     0.012 A 
ATOM     23  C   UNL d   1      -0.955 -31.350 -16.230  0.00  0.00    -0.036 A 
ATOM     24  C   UNL d   1       0.224 -31.515 -15.610  0.00  0.00     0.024 A 
BRANCH  20  25
ATOM     25  C   UNL d   1      -0.537 -29.765 -12.334  0.00  0.00     0.002 C 
ATOM     26  C   UNL d   1      -1.500 -29.785 -11.471  0.00  0.00     0.012 C 
ENDBRANCH  20  25
BRANCH  23  27
ATOM     27  C   UNL d   1      -1.266 -31.799 -17.608  0.00  0.00     0.001 C 
ATOM     28  C   UNL d   1      -1.609 -30.919 -18.488  0.00  0.00     0.012 C 
ENDBRANCH  23  27
ENDBRANCH   1  19
BRANCH   3  29
ATOM     29  C   UNL d   1       5.191 -30.510 -14.352  0.00  0.00     0.249 C 
ATOM     30  N   UNL d   1       5.911 -31.693 -14.993  0.00  0.00    -0.366 N 
ATOM     31  H   UNL d   1       5.538 -32.601 -14.907  0.00  0.00     0.159 HD
ATOM     32  H   UNL d   1       6.747 -31.549 -15.492  0.00  0.00     0.159 HD
ATOM     33  O   UNL d   1       5.569 -29.392 -14.407  0.00  0.00    -0.268 OA
ENDBRANCH   3  29
TORSDOF 8
ENDMDL
MODEL 4
REMARK VINA RESULT:      -8.3      2.752      6.961
REMARK  8 active torsions:
REMARK  status: ('A' for Active; 'I' for Inactive)
REMARK    1  A    between atoms: C_2  and  C_3 
REMARK    2  A    between atoms: C_6  and  C_7 
REMARK    3  A    between atoms: C_9  and  C_10 
REMARK    4  A    between atoms: C_12  and  C_13 
REMARK       I    between atoms: C_13  and  N_14 
REMARK    5  A    between atoms: C_18  and  C_19 
REMARK    6  A    between atoms: C_19  and  C_20 
REMARK    7  A    between atoms: C_20  and  N_21 
REMARK    8  A    between atoms: C_25  and  C_26 
REMARK       I    between atoms: C_26  and  N_28 
ROOT
ATOM      1  C   UNL d   1      -0.216 -30.762 -12.619  0.00  0.00    -0.014 A 
ATOM      2  C   UNL d   1      -0.743 -31.291 -11.310  0.00  0.00     0.030 A 
ATOM      3  C   UNL d   1       0.023 -31.935 -10.415  0.00  0.00     0.032 A 
ATOM      4  C   UNL d   1       1.321 -32.097 -10.735  0.00  0.00     0.018 A 
ATOM      5  C   UNL d   1       1.897 -31.675 -11.849  0.00  0.00     0.013 A 
ATOM      6  C   UNL d   1       1.040 -30.996 -12.771  0.00  0.00    -0.024 A 
ENDROOT
BRANCH   6   7
ATOM      7  C   UNL d   1       1.755 -31.085 -14.097  0.00  0.00     0.029 C 
BRANCH   7   8
ATOM      8  C   UNL d   1       2.880 -31.685 -14.035  0.00  0.00     0.087 C 
BRANCH   8   9
ATOM      9  N   UNL d   1       3.937 -31.622 -14.868  0.00  0.00    -0.377 N 
ATOM     10  C   UNL d   1       5.286 -31.825 -14.221  0.00  0.00     0.123 C 
ATOM     11  C   UNL d   1       6.297 -31.365 -15.109  0.00  0.00     0.022 C 
ATOM     12  C   UNL d   1       5.659 -31.296 -16.427  0.00  0.00     0.037 C 
ATOM     13  C   UNL d   1       4.186 -31.226 -16.179  0.00  0.00     0.175 C 
BRANCH  13  14
ATOM     14  C   UNL d   1       3.348 -31.416 -17.353  0.00  0.00     0.240 C 
ATOM     15  O   UNL d   1       3.445 -32.423 -18.086  0.00  0.00    -0.271 OA
ATOM     16  N   UNL d   1       2.372 -30.445 -17.710  0.00  0.00    -0.364 N 
ATOM     17  C   UNL d   1       1.531 -30.658 -18.934  0.00  0.00     0.149 C 
ATOM     18  H   UNL d   1       2.251 -29.639 -17.160  0.00  0.00     0.161 HD
ENDBRANCH  13  14
ENDBRANCH   8   9
ENDBRANCH   7   8
ENDBRANCH   6   7
BRANCH   1  19
ATOM     19  C   UNL d   1      -1.264 -30.215 -13.487  0.00  0.00    -0.014 A 
ATOM     20  C   UNL d   1      -2.395 -29.779 -13.143  0.00  0.00    -0.026 A 
ATOM     21  C   UNL d   1      -3.483 -29.520 -14.076  0.00  0.00     0.013 A 
ATOM     22  C   UNL d   1      -3.234 -29.793 -15.373  0.00  0.00     0.012 A 
ATOM     23  C   UNL d   1      -1.931 -30.327 -15.787  0.00  0.00    -0.036 A 
ATOM     24  C   UNL d   1      -0.949 -30.541 -14.896  0.00  0.00     0.024 A 
BRANCH  20  25
ATOM     25  C   UNL d   1      -2.705 -29.390 -11.739  0.00  0.00     0.002 C 
ATOM     26  C   UNL d   1      -3.903 -29.408 -11.250  0.00  0.00     0.012 C 
ENDBRANCH  20  25
BRANCH  23  27
ATOM     27  C   UNL d   1      -1.823 -30.555 -17.247  0.00  0.00     0.001 C 
ATOM     28  C   UNL d   1      -1.851 -31.766 -17.694  0.00  0.00     0.012 C 
ENDBRANCH  23  27
ENDBRANCH   1  19
BRANCH   3  29
ATOM     29  C   UNL d   1      -0.584 -32.354  -9.147  0.00  0.00     0.249 C 
ATOM     30  N   UNL d   1       0.532 -32.219  -8.115  0.00  0.00    -0.366 N 
ATOM     31  H   UNL d   1       1.416 -31.882  -8.388  0.00  0.00     0.159 HD
ATOM     32  H   UNL d   1       0.368 -32.470  -7.178  0.00  0.00     0.159 HD
ATOM     33  O   UNL d   1      -1.671 -32.750  -8.904  0.00  0.00    -0.268 OA
ENDBRANCH   3  29
TORSDOF 8
ENDMDL
MODEL 5
REMARK VINA RESULT:      -8.3      2.750      6.187
REMARK  8 active torsions:
REMARK  status: ('A' for Active; 'I' for Inactive)
REMARK    1  A    between atoms: C_2  and  C_3 
REMARK    2  A    between atoms: C_6  and  C_7 
REMARK    3  A    between atoms: C_9  and  C_10 
REMARK    4  A    between atoms: C_12  and  C_13 
REMARK       I    between atoms: C_13  and  N_14 
REMARK    5  A    between atoms: C_18  and  C_19 
REMARK    6  A    between atoms: C_19  and  C_20 
REMARK    7  A    between atoms: C_20  and  N_21 
REMARK    8  A    between atoms: C_25  and  C_26 
REMARK       I    between atoms: C_26  and  N_28 
ROOT
ATOM      1  C   UNL d   1       0.457 -31.326 -14.678  0.00  0.00    -0.014 A 
ATOM      2  C   UNL d   1       1.279 -31.308 -15.940  0.00  0.00     0.030 A 
ATOM      3  C   UNL d   1       2.606 -31.511 -15.957  0.00  0.00     0.032 A 
ATOM      4  C   UNL d   1       3.198 -31.741 -14.770  0.00  0.00     0.018 A 
ATOM      5  C   UNL d   1       2.583 -31.784 -13.600  0.00  0.00     0.013 A 
ATOM      6  C   UNL d   1       1.170 -31.560 -13.633  0.00  0.00    -0.024 A 
ENDROOT
BRANCH   6   7
ATOM      7  C   UNL d   1       0.813 -31.153 -12.225  0.00  0.00     0.029 C 
BRANCH   7   8
ATOM      8  C   UNL d   1       1.741 -31.371 -11.375  0.00  0.00     0.087 C 
BRANCH   8   9
ATOM      9  N   UNL d   1       1.706 -32.062 -10.219  0.00  0.00    -0.377 N 
ATOM     10  C   UNL d   1       3.015 -32.685  -9.795  0.00  0.00     0.123 C 
ATOM     11  C   UNL d   1       2.756 -33.669  -8.802  0.00  0.00     0.022 C 
ATOM     12  C   UNL d   1       1.413 -33.371  -8.295  0.00  0.00     0.037 C 
ATOM     13  C   UNL d   1       0.737 -32.551  -9.347  0.00  0.00     0.175 C 
BRANCH  13  14
ATOM     14  C   UNL d   1      -0.511 -31.923  -8.941  0.00  0.00     0.240 C 
ATOM     15  O   UNL d   1      -1.589 -32.551  -8.897  0.00  0.00    -0.271 OA
ATOM     16  N   UNL d   1      -0.543 -30.550  -8.573  0.00  0.00    -0.364 N 
ATOM     17  C   UNL d   1      -1.845 -29.923  -8.172  0.00  0.00     0.149 C 
ATOM     18  H   UNL d   1       0.283 -30.014  -8.583  0.00  0.00     0.161 HD
ENDBRANCH  13  14
ENDBRANCH   8   9
ENDBRANCH   7   8
ENDBRANCH   6   7
BRANCH   1  19
ATOM     19  C   UNL d   1      -0.943 -30.947 -14.892  0.00  0.00    -0.014 A 
ATOM     20  C   UNL d   1      -1.564 -30.889 -15.987  0.00  0.00    -0.026 A 
ATOM     21  C   UNL d   1      -2.854 -30.237 -16.155  0.00  0.00     0.013 A 
ATOM     22  C   UNL d   1      -3.376 -29.656 -15.056  0.00  0.00     0.012 A 
ATOM     23  C   UNL d   1      -2.654 -29.690 -13.779  0.00  0.00    -0.036 A 
ATOM     24  C   UNL d   1      -1.470 -30.313 -13.663  0.00  0.00     0.024 A 
BRANCH  20  25
ATOM     25  C   UNL d   1      -1.074 -31.574 -17.216  0.00  0.00     0.002 C 
ATOM     26  C   UNL d   1      -1.531 -31.313 -18.398  0.00  0.00     0.012 C 
ENDBRANCH  20  25
BRANCH  23  27
ATOM     27  C   UNL d   1      -3.377 -29.017 -12.673  0.00  0.00     0.001 C 
ATOM     28  C   UNL d   1      -3.443 -29.602 -11.524  0.00  0.00     0.012 C 
ENDBRANCH  23  27
ENDBRANCH   1  19
BRANCH   3  29
ATOM     29  C   UNL d   1       3.294 -31.530 -17.253  0.00  0.00     0.249 C 
ATOM     30  N   UNL d   1       2.235 -31.105 -18.265  0.00  0.00    -0.366 N 
ATOM     31  H   UNL d   1       1.328 -30.871 -17.960  0.00  0.00     0.159 HD
ATOM     32  H   UNL d   1       2.457 -31.065 -19.223  0.00  0.00     0.159 HD
ATOM     33  O   UNL d   1       4.403 -31.827 -17.535  0.00  0.00    -0.268 OA
ENDBRANCH   3  29
TORSDOF 8
ENDMDL
MODEL 6
REMARK VINA RESULT:      -8.2      2.629      5.105
REMARK  8 active torsions:
REMARK  status: ('A' for Active; 'I' for Inactive)
REMARK    1  A    between atoms: C_2  and  C_3 
REMARK    2  A    between atoms: C_6  and  C_7 
REMARK    3  A    between atoms: C_9  and  C_10 
REMARK    4  A    between atoms: C_12  and  C_13 
REMARK       I    between atoms: C_13  and  N_14 
REMARK    5  A    between atoms: C_18  and  C_19 
REMARK    6  A    between atoms: C_19  and  C_20 
REMARK    7  A    between atoms: C_20  and  N_21 
REMARK    8  A    between atoms: C_25  and  C_26 
REMARK       I    between atoms: C_26  and  N_28 
ROOT
ATOM      1  C   UNL d   1       0.301 -30.775 -14.016  0.00  0.00    -0.014 A 
ATOM      2  C   UNL d   1      -0.029 -31.296 -15.390  0.00  0.00     0.030 A 
ATOM      3  C   UNL d   1      -1.183 -31.026 -16.021  0.00  0.00     0.032 A 
ATOM      4  C   UNL d   1      -2.064 -30.247 -15.366  0.00  0.00     0.018 A 
ATOM      5  C   UNL d   1      -1.886 -29.730 -14.161  0.00  0.00     0.013 A 
ATOM      6  C   UNL d   1      -0.642 -30.047 -13.528  0.00  0.00    -0.024 A 
ENDROOT
BRANCH   6   7
ATOM      7  C   UNL d   1      -0.886 -29.807 -12.059  0.00  0.00     0.029 C 
BRANCH   7   8
ATOM      8  C   UNL d   1      -2.046 -30.167 -11.664  0.00  0.00     0.087 C 
BRANCH   8   9
ATOM      9  N   UNL d   1      -2.706 -29.857 -10.532  0.00  0.00    -0.377 N 
ATOM     10  C   UNL d   1      -4.103 -29.316 -10.723  0.00  0.00     0.123 C 
ATOM     11  C   UNL d   1      -4.523 -28.690  -9.518  0.00  0.00     0.022 C 
ATOM     12  C   UNL d   1      -3.626 -29.201  -8.477  0.00  0.00     0.037 C 
ATOM     13  C   UNL d   1      -2.407 -29.706  -9.181  0.00  0.00     0.175 C 
BRANCH  13  14
ATOM     14  C   UNL d   1      -1.498 -30.495  -8.364  0.00  0.00     0.240 C 
ATOM     15  O   UNL d   1      -1.767 -31.662  -8.007  0.00  0.00    -0.271 OA
ATOM     16  N   UNL d   1      -0.253 -29.956  -7.940  0.00  0.00    -0.364 N 
ATOM     17  C   UNL d   1       0.659 -30.785  -7.086  0.00  0.00     0.149 C 
ATOM     18  H   UNL d   1       0.008 -29.044  -8.203  0.00  0.00     0.161 HD
ENDBRANCH  13  14
ENDBRANCH   8   9
ENDBRANCH   7   8
ENDBRANCH   6   7
BRANCH   1  19
ATOM     19  C   UNL d   1       1.556 -31.309 -13.479  0.00  0.00    -0.014 A 
ATOM     20  C   UNL d   1       1.722 -31.948 -12.406  0.00  0.00    -0.026 A 
ATOM     21  C   UNL d   1       3.023 -32.195 -11.800  0.00  0.00     0.013 A 
ATOM     22  C   UNL d   1       4.088 -31.680 -12.446  0.00  0.00     0.012 A 
ATOM     23  C   UNL d   1       3.911 -30.910 -13.684  0.00  0.00    -0.036 A 
ATOM     24  C   UNL d   1       2.694 -30.714 -14.215  0.00  0.00     0.024 A 
BRANCH  20  25
ATOM     25  C   UNL d   1       0.593 -32.602 -11.686  0.00  0.00     0.002 C 
ATOM     26  C   UNL d   1       0.586 -32.789 -10.407  0.00  0.00     0.012 C 
ENDBRANCH  20  25
BRANCH  23  27
ATOM     27  C   UNL d   1       5.186 -30.431 -14.269  0.00  0.00     0.001 C 
ATOM     28  C   UNL d   1       5.870 -31.231 -15.016  0.00  0.00     0.012 C 
ENDBRANCH  23  27
ENDBRANCH   1  19
BRANCH   3  29
ATOM     29  C   UNL d   1      -1.372 -31.538 -17.383  0.00  0.00     0.249 C 
ATOM     30  N   UNL d   1      -2.812 -32.041 -17.417  0.00  0.00    -0.366 N 
ATOM     31  H   UNL d   1      -3.384 -31.948 -16.621  0.00  0.00     0.159 HD
ATOM     32  H   UNL d   1      -3.169 -32.458 -18.233  0.00  0.00     0.159 HD
ATOM     33  O   UNL d   1      -0.620 -31.612 -18.293  0.00  0.00    -0.268 OA
ENDBRANCH   3  29
TORSDOF 8
ENDMDL
MODEL 7
REMARK VINA RESULT:      -8.0      1.896      3.773
REMARK  8 active torsions:
REMARK  status: ('A' for Active; 'I' for Inactive)
REMARK    1  A    between atoms: C_2  and  C_3 
REMARK    2  A    between atoms: C_6  and  C_7 
REMARK    3  A    between atoms: C_9  and  C_10 
REMARK    4  A    between atoms: C_12  and  C_13 
REMARK       I    between atoms: C_13  and  N_14 
REMARK    5  A    between atoms: C_18  and  C_19 
REMARK    6  A    between atoms: C_19  and  C_20 
REMARK    7  A    between atoms: C_20  and  N_21 
REMARK    8  A    between atoms: C_25  and  C_26 
REMARK       I    between atoms: C_26  and  N_28 
ROOT
ATOM      1  C   UNL d   1       1.927 -31.989 -14.443  0.00  0.00    -0.014 A 
ATOM      2  C   UNL d   1       3.220 -32.652 -14.048  0.00  0.00     0.030 A 
ATOM      3  C   UNL d   1       3.580 -32.860 -12.771  0.00  0.00     0.032 A 
ATOM      4  C   UNL d   1       2.719 -32.444 -11.824  0.00  0.00     0.018 A 
ATOM      5  C   UNL d   1       1.556 -31.853 -12.048  0.00  0.00     0.013 A 
ATOM      6  C   UNL d   1       1.218 -31.653 -13.424  0.00  0.00    -0.024 A 
ENDROOT
BRANCH   6   7
ATOM      7  C   UNL d   1       0.178 -30.560 -13.408  0.00  0.00     0.029 C 
BRANCH   7   8
ATOM      8  C   UNL d   1      -0.149 -30.178 -12.234  0.00  0.00     0.087 C 
BRANCH   8   9
ATOM      9  N   UNL d   1      -1.347 -30.211 -11.619  0.00  0.00    -0.377 N 
ATOM     10  C   UNL d   1      -2.508 -29.689 -12.433  0.00  0.00     0.123 C 
ATOM     11  C   UNL d   1      -3.601 -29.429 -11.561  0.00  0.00     0.022 C 
ATOM     12  C   UNL d   1      -3.307 -30.170 -10.331  0.00  0.00     0.037 C 
ATOM     13  C   UNL d   1      -1.832 -30.421 -10.332  0.00  0.00     0.175 C 
BRANCH  13  14
ATOM     14  C   UNL d   1      -1.362 -31.369  -9.334  0.00  0.00     0.240 C 
ATOM     15  O   UNL d   1      -1.967 -32.434  -9.090  0.00  0.00    -0.271 OA
ATOM     16  N   UNL d   1      -0.176 -31.110  -8.593  0.00  0.00    -0.364 N 
ATOM     17  C   UNL d   1       0.280 -32.097  -7.560  0.00  0.00     0.149 C 
ATOM     18  H   UNL d   1       0.341 -30.289  -8.755  0.00  0.00     0.161 HD
ENDBRANCH  13  14
ENDBRANCH   8   9
ENDBRANCH   7   8
ENDBRANCH   6   7
BRANCH   1  19
ATOM     19  C   UNL d   1       1.814 -31.753 -15.886  0.00  0.00    -0.014 A 
ATOM     20  C   UNL d   1       2.727 -31.406 -16.681  0.00  0.00    -0.026 A 
ATOM     21  C   UNL d   1       2.487 -30.916 -18.031  0.00  0.00     0.013 A 
ATOM     22  C   UNL d   1       1.196 -30.825 -18.410  0.00  0.00     0.012 A 
ATOM     23  C   UNL d   1       0.118 -31.199 -17.488  0.00  0.00    -0.036 A 
ATOM     24  C   UNL d   1       0.383 -31.657 -16.254  0.00  0.00     0.024 A 
BRANCH  20  25
ATOM     25  C   UNL d   1       4.172 -31.553 -16.346  0.00  0.00     0.002 C 
ATOM     26  C   UNL d   1       5.105 -30.877 -16.934  0.00  0.00     0.012 C 
ENDBRANCH  20  25
BRANCH  23  27
ATOM     27  C   UNL d   1      -1.237 -31.052 -18.071  0.00  0.00     0.001 C 
ATOM     28  C   UNL d   1      -2.169 -30.514 -17.358  0.00  0.00     0.012 C 
ENDBRANCH  23  27
ENDBRANCH   1  19
BRANCH   3  29
ATOM     29  C   UNL d   1       4.837 -33.570 -12.505  0.00  0.00     0.249 C 
ATOM     30  N   UNL d   1       5.397 -33.905 -13.885  0.00  0.00    -0.366 N 
ATOM     31  H   UNL d   1       4.917 -33.615 -14.694  0.00  0.00     0.159 HD
ATOM     32  H   UNL d   1       6.237 -34.410 -13.965  0.00  0.00     0.159 HD
ATOM     33  O   UNL d   1       5.349 -33.880 -11.486  0.00  0.00    -0.268 OA
ENDBRANCH   3  29
TORSDOF 8
ENDMDL
MODEL 8
REMARK VINA RESULT:      -7.9      2.678      5.077
REMARK  8 active torsions:
REMARK  status: ('A' for Active; 'I' for Inactive)
REMARK    1  A    between atoms: C_2  and  C_3 
REMARK    2  A    between atoms: C_6  and  C_7 
REMARK    3  A    between atoms: C_9  and  C_10 
REMARK    4  A    between atoms: C_12  and  C_13 
REMARK       I    between atoms: C_13  and  N_14 
REMARK    5  A    between atoms: C_18  and  C_19 
REMARK    6  A    between atoms: C_19  and  C_20 
REMARK    7  A    between atoms: C_20  and  N_21 
REMARK    8  A    between atoms: C_25  and  C_26 
REMARK       I    between atoms: C_26  and  N_28 
ROOT
ATOM      1  C   UNL d   1       1.714 -31.174 -14.954  0.00  0.00    -0.014 A 
ATOM      2  C   UNL d   1       0.834 -31.470 -16.140  0.00  0.00     0.030 A 
ATOM      3  C   UNL d   1      -0.486 -31.225 -16.155  0.00  0.00     0.032 A 
ATOM      4  C   UNL d   1      -1.015 -30.688 -15.040  0.00  0.00     0.018 A 
ATOM      5  C   UNL d   1      -0.345 -30.382 -13.941  0.00  0.00     0.013 A 
ATOM      6  C   UNL d   1       1.058 -30.662 -13.973  0.00  0.00    -0.024 A 
ENDROOT
BRANCH   6   7
ATOM      7  C   UNL d   1       1.470 -30.724 -12.523  0.00  0.00     0.029 C 
BRANCH   7   8
ATOM      8  C   UNL d   1       0.919 -31.675 -11.871  0.00  0.00     0.087 C 
BRANCH   8   9
ATOM      9  N   UNL d   1       1.225 -32.181 -10.661  0.00  0.00    -0.377 N 
ATOM     10  C   UNL d   1       2.630 -32.719 -10.520  0.00  0.00     0.123 C 
ATOM     11  C   UNL d   1       2.693 -33.543  -9.362  0.00  0.00     0.022 C 
ATOM     12  C   UNL d   1       1.518 -33.185  -8.562  0.00  0.00     0.037 C 
ATOM     13  C   UNL d   1       0.547 -32.542  -9.501  0.00  0.00     0.175 C 
BRANCH  13  14
ATOM     14  C   UNL d   1      -0.580 -31.872  -8.869  0.00  0.00     0.240 C 
ATOM     15  O   UNL d   1      -1.682 -32.436  -8.704  0.00  0.00    -0.271 OA
ATOM     16  N   UNL d   1      -0.459 -30.532  -8.410  0.00  0.00    -0.364 N 
ATOM     17  C   UNL d   1      -1.640 -29.860  -7.775  0.00  0.00     0.149 C 
ATOM     18  H   UNL d   1       0.392 -30.048  -8.509  0.00  0.00     0.161 HD
ENDBRANCH  13  14
ENDBRANCH   8   9
ENDBRANCH   7   8
ENDBRANCH   6   7
BRANCH   1  19
ATOM     19  C   UNL d   1       3.092 -31.647 -15.122  0.00  0.00    -0.014 A 
ATOM     20  C   UNL d   1       3.610 -32.688 -14.637  0.00  0.00    -0.026 A 
ATOM     21  C   UNL d   1       5.043 -32.944 -14.608  0.00  0.00     0.013 A 
ATOM     22  C   UNL d   1       5.832 -31.979 -15.124  0.00  0.00     0.012 A 
ATOM     23  C   UNL d   1       5.246 -30.748 -15.670  0.00  0.00    -0.036 A 
ATOM     24  C   UNL d   1       3.917 -30.557 -15.688  0.00  0.00     0.024 A 
BRANCH  20  25
ATOM     25  C   UNL d   1       2.790 -33.819 -14.119  0.00  0.00     0.002 C 
ATOM     26  C   UNL d   1       2.171 -34.652 -14.890  0.00  0.00     0.012 C 
ENDBRANCH  20  25
BRANCH  23  27
ATOM     27  C   UNL d   1       6.253 -29.804 -16.210  0.00  0.00     0.001 C 
ATOM     28  C   UNL d   1       7.219 -30.266 -16.931  0.00  0.00     0.012 C 
ENDBRANCH  23  27
ENDBRANCH   1  19
BRANCH   3  29
ATOM     29  C   UNL d   1      -1.234 -31.498 -17.388  0.00  0.00     0.249 C 
ATOM     30  N   UNL d   1      -2.644 -30.982 -17.113  0.00  0.00    -0.366 N 
ATOM     31  H   UNL d   1      -2.851 -30.554 -16.251  0.00  0.00     0.159 HD
ATOM     32  H   UNL d   1      -3.345 -31.078 -17.797  0.00  0.00     0.159 HD
ATOM     33  O   UNL d   1      -0.902 -32.024 -18.393  0.00  0.00    -0.268 OA
ENDBRANCH   3  29
TORSDOF 8
ENDMDL
MODEL 9
REMARK VINA RESULT:      -7.9      2.898      7.730
REMARK  8 active torsions:
REMARK  status: ('A' for Active; 'I' for Inactive)
REMARK    1  A    between atoms: C_2  and  C_3 
REMARK    2  A    between atoms: C_6  and  C_7 
REMARK    3  A    between atoms: C_9  and  C_10 
REMARK    4  A    between atoms: C_12  and  C_13 
REMARK       I    between atoms: C_13  and  N_14 
REMARK    5  A    between atoms: C_18  and  C_19 
REMARK    6  A    between atoms: C_19  and  C_20 
REMARK    7  A    between atoms: C_20  and  N_21 
REMARK    8  A    between atoms: C_25  and  C_26 
REMARK       I    between atoms: C_26  and  N_28 
ROOT
ATOM      1  C   UNL d   1      -1.682 -30.547 -10.416  0.00  0.00    -0.014 A 
ATOM      2  C   UNL d   1      -2.919 -30.132  -9.665  0.00  0.00     0.030 A 
ATOM      3  C   UNL d   1      -3.952 -29.496 -10.242  0.00  0.00     0.032 A 
ATOM      4  C   UNL d   1      -3.842 -29.234 -11.557  0.00  0.00     0.018 A 
ATOM      5  C   UNL d   1      -2.809 -29.550 -12.321  0.00  0.00     0.013 A 
ATOM      6  C   UNL d   1      -1.734 -30.226 -11.661  0.00  0.00    -0.024 A 
ENDROOT
BRANCH   6   7
ATOM      7  C   UNL d   1      -0.539 -30.012 -12.557  0.00  0.00     0.029 C 
BRANCH   7   8
ATOM      8  C   UNL d   1      -0.844 -29.664 -13.748  0.00  0.00     0.087 C 
BRANCH   8   9
ATOM      9  N   UNL d   1      -0.944 -30.409 -14.865  0.00  0.00    -0.377 N 
ATOM     10  C   UNL d   1      -2.285 -30.365 -15.557  0.00  0.00     0.123 C 
ATOM     11  C   UNL d   1      -2.372 -31.455 -16.465  0.00  0.00     0.022 C 
ATOM     12  C   UNL d   1      -0.991 -31.903 -16.673  0.00  0.00     0.037 C 
ATOM     13  C   UNL d   1      -0.204 -31.400 -15.504  0.00  0.00     0.175 C 
BRANCH  13  14
ATOM     14  C   UNL d   1       1.241 -31.504 -15.636  0.00  0.00     0.240 C 
ATOM     15  O   UNL d   1       2.018 -31.208 -14.704  0.00  0.00    -0.271 OA
ATOM     16  N   UNL d   1       1.826 -31.955 -16.851  0.00  0.00    -0.364 N 
ATOM     17  C   UNL d   1       3.319 -32.039 -16.966  0.00  0.00     0.149 C 
ATOM     18  H   UNL d   1       1.255 -32.209 -17.612  0.00  0.00     0.161 HD
ENDBRANCH  13  14
ENDBRANCH   8   9
ENDBRANCH   7   8
ENDBRANCH   6   7
BRANCH   1  19
ATOM     19  C   UNL d   1      -0.638 -31.105  -9.551  0.00  0.00    -0.014 A 
ATOM     20  C   UNL d   1       0.121 -32.080  -9.796  0.00  0.00    -0.026 A 
ATOM     21  C   UNL d   1       0.929 -32.753  -8.789  0.00  0.00     0.013 A 
ATOM     22  C   UNL d   1       0.818 -32.289  -7.528  0.00  0.00     0.012 A 
ATOM     23  C   UNL d   1      -0.082 -31.171  -7.220  0.00  0.00    -0.036 A 
ATOM     24  C   UNL d   1      -0.802 -30.570  -8.181  0.00  0.00     0.024 A 
BRANCH  20  25
ATOM     25  C   UNL d   1       0.341 -32.590 -11.178  0.00  0.00     0.002 C 
ATOM     26  C   UNL d   1       1.516 -32.731 -11.699  0.00  0.00     0.012 C 
ENDBRANCH  20  25
BRANCH  23  27
ATOM     27  C   UNL d   1      -0.070 -30.779  -5.790  0.00  0.00     0.001 C 
ATOM     28  C   UNL d   1      -0.949 -31.292  -4.995  0.00  0.00     0.012 C 
ENDBRANCH  23  27
ENDBRANCH   1  19
BRANCH   3  29
ATOM     29  C   UNL d   1      -5.132 -29.193  -9.424  0.00  0.00     0.249 C 
ATOM     30  N   UNL d   1      -6.103 -28.503 -10.378  0.00  0.00    -0.366 N 
ATOM     31  H   UNL d   1      -5.859 -28.381 -11.324  0.00  0.00     0.159 HD
ATOM     32  H   UNL d   1      -6.972 -28.180 -10.048  0.00  0.00     0.159 HD
ATOM     33  O   UNL d   1      -5.346 -29.378  -8.276  0.00  0.00    -0.268 OA
ENDBRANCH   3  29
TORSDOF 8
ENDMDL
