REMARK  8 active torsions:
REMARK  status: ('A' for Active; 'I' for Inactive)
REMARK    1  A    between atoms: C_2  and  C_3 
REMARK    2  A    between atoms: C_6  and  C_7 
REMARK    3  A    between atoms: C_9  and  C_10 
REMARK    4  A    between atoms: C_12  and  C_13 
REMARK       I    between atoms: C_13  and  N_14 
REMARK    5  A    between atoms: C_18  and  C_19 
REMARK    6  A    between atoms: C_19  and  C_20 
REMARK    7  A    between atoms: C_20  and  N_21 
REMARK    8  A    between atoms: C_25  and  C_26 
REMARK       I    between atoms: C_26  and  N_28 
ROOT
ATOM      1  C   UNL d   1      -1.870  -0.605   0.370  0.00  0.00    -0.014 A 
ATOM      2  C   UNL d   1      -2.897  -1.702   0.268  0.00  0.00     0.030 A 
ATOM      3  C   UNL d   1      -2.616  -2.933  -0.189  0.00  0.00     0.032 A 
ATOM      4  C   UNL d   1      -1.344  -3.163  -0.564  0.00  0.00     0.018 A 
ATOM      5  C   UNL d   1      -0.357  -2.283  -0.518  0.00  0.00     0.013 A 
ATOM      6  C   UNL d   1      -0.706  -0.986  -0.025  0.00  0.00    -0.024 A 
ENDROOT
BRANCH   6   7
ATOM      7  C   UNL d   1       0.381  -0.075  -0.539  0.00  0.00     0.029 C 
BRANCH   7   8
ATOM      8  C   UNL d   1       1.532  -0.626  -0.593  0.00  0.00     0.087 C 
BRANCH   8   9
ATOM      9  N   UNL d   1       2.691  -0.154  -1.091  0.00  0.00    -0.377 N 
ATOM     10  C   UNL d   1       2.610   0.427  -2.483  0.00  0.00     0.123 C 
ATOM     11  C   UNL d   1       3.924   0.528  -3.017  0.00  0.00     0.022 C 
ATOM     12  C   UNL d   1       4.824   0.443  -1.863  0.00  0.00     0.037 C 
ATOM     13  C   UNL d   1       4.043  -0.209  -0.766  0.00  0.00     0.175 C 
BRANCH  13  14
ATOM     14  C   UNL d   1       4.657  -0.155   0.552  0.00  0.00     0.240 C 
ATOM     15  O   UNL d   1       4.479  -1.048   1.407  0.00  0.00    -0.271 OA
ATOM     16  N   UNL d   1       5.495   0.935   0.915  0.00  0.00    -0.364 N 
ATOM     17  C   UNL d   1       6.104   0.974   2.285  0.00  0.00     0.149 C 
ATOM     18  H   UNL d   1       5.673   1.659   0.273  0.00  0.00     0.161 HD
ENDBRANCH  13  14
ENDBRANCH   8   9
ENDBRANCH   7   8
ENDBRANCH   6   7
BRANCH   1  19
ATOM     19  C   UNL d   1      -2.438   0.686   0.770  0.00  0.00    -0.014 A 
ATOM     20  C   UNL d   1      -2.829   1.030   1.917  0.00  0.00    -0.026 A 
ATOM     21  C   UNL d   1      -3.638   2.212   2.179  0.00  0.00     0.013 A 
ATOM     22  C   UNL d   1      -3.985   2.947   1.103  0.00  0.00     0.012 A 
ATOM     23  C   UNL d   1      -3.561   2.546  -0.244  0.00  0.00    -0.036 A 
ATOM     24  C   UNL d   1      -2.805   1.454  -0.441  0.00  0.00     0.024 A 
BRANCH  20  25
ATOM     25  C   UNL d   1      -2.418   0.301   3.150  0.00  0.00     0.002 C 
ATOM     26  C   UNL d   1      -2.911   0.557   4.318  0.00  0.00     0.012 C 
ENDBRANCH  20  25
BRANCH  23  27
ATOM     27  C   UNL d   1      -4.016   3.473  -1.307  0.00  0.00     0.001 C 
ATOM     28  C   UNL d   1      -3.871   3.126  -2.542  0.00  0.00     0.012 C 
ENDBRANCH  23  27
ENDBRANCH   1  19
BRANCH   3  29
ATOM     29  C   UNL d   1      -3.683  -3.940  -0.188  0.00  0.00     0.249 C 
ATOM     30  N   UNL d   1      -2.981  -5.254   0.143  0.00  0.00    -0.366 N 
ATOM     31  H   UNL d   1      -2.013  -5.263   0.321  0.00  0.00     0.159 HD
ATOM     32  H   UNL d   1      -3.496  -6.092   0.178  0.00  0.00     0.159 HD
ATOM     33  O   UNL d   1      -4.839  -3.842  -0.415  0.00  0.00    -0.268 OA
ENDBRANCH   3  29
TORSDOF 8
