REMARK  4 active torsions:
REMARK  status: ('A' for Active; 'I' for Inactive)
REMARK    1  A    between atoms: C_4  and  C_5 
REMARK    2  A    between atoms: C_6  and  C_7 
REMARK    3  A    between atoms: C_7  and  N_8 
REMARK    4  A    between atoms: C_11  and  C_12 
ROOT
ATOM      1  C   UNL d   1       4.790   0.243   0.062  0.00  0.00    -0.021 A 
ATOM      2  C   UNL d   1       4.844   1.554  -0.344  0.00  0.00     0.012 A 
ATOM      3  C   UNL d   1       6.004   2.115  -0.827  0.00  0.00     0.002 A 
ATOM      4  C   UNL d   1       7.189   1.396  -0.936  0.00  0.00     0.023 A 
ATOM      5  C   UNL d   1       7.143   0.060  -0.525  0.00  0.00     0.045 A 
ATOM      6  C   UNL d   1       8.369  -0.678  -0.618  0.00  0.00     0.099 C 
ATOM      7  N   UNL d   1       9.379  -1.272  -0.710  0.00  0.00    -0.191 NA
ATOM      8  C   UNL d   1       5.984  -0.461  -0.055  0.00  0.00     0.035 A 
ENDROOT
BRANCH   1   9
ATOM      9  C   UNL d   1       3.585  -0.341   0.600  0.00  0.00     0.014 A 
ATOM     10  C   UNL d   1       3.721  -1.272   1.647  0.00  0.00     0.016 A 
ATOM     11  C   UNL d   1       2.633  -1.881   2.199  0.00  0.00     0.011 A 
ATOM     12  C   UNL d   1       1.359  -1.578   1.723  0.00  0.00    -0.019 A 
ATOM     13  C   UNL d   1       1.171  -0.677   0.705  0.00  0.00     0.025 A 
ATOM     14  C   UNL d   1       2.300  -0.085   0.173  0.00  0.00     0.139 A 
ATOM     15  F   UNL d   1       2.129   0.825  -0.840  0.00  0.00    -0.204 F 
BRANCH  12  16
ATOM     16  C   UNL d   1       0.210  -2.251   2.328  0.00  0.00     0.269 C 
BRANCH  16  17
ATOM     17  N   UNL d   1       0.665  -3.307   3.245  0.00  0.00    -0.075 N 
ATOM     18  H   UNL d   1       1.214  -3.994   2.728  0.00  0.00     0.274 HD
ATOM     19  H   UNL d   1      -0.144  -3.765   3.665  0.00  0.00     0.274 HD
ATOM     20  H   UNL d   1       1.241  -2.895   3.979  0.00  0.00     0.274 HD
ENDBRANCH  16  17
ENDBRANCH  12  16
BRANCH  13  21
ATOM     21  C   UNL d   1      -0.184  -0.379   0.283  0.00  0.00     0.017 A 
ATOM     22  C   UNL d   1      -0.798   0.729   0.886  0.00  0.00     0.024 A 
ATOM     23  C   UNL d   1      -2.059   1.131   0.560  0.00  0.00    -0.034 A 
ATOM     24  C   UNL d   1      -2.698   2.321   1.226  0.00  0.00     0.050 C 
ATOM     25  C   UNL d   1      -2.762   0.407  -0.412  0.00  0.00     0.039 A 
ATOM     26  C   UNL d   1      -2.140  -0.697  -1.006  0.00  0.00     0.073 A 
ATOM     27  N   UNL d   1      -4.008   0.831  -0.763  0.00  0.00    -0.377 N 
ATOM     28  C   UNL d   1      -0.869  -1.097  -0.675  0.00  0.00     0.129 A 
ATOM     29  F   UNL d   1      -0.254  -2.161  -1.232  0.00  0.00    -0.205 F 
ATOM     30  C   UNL d   1      -4.252   1.521  -2.136  0.00  0.00     0.150 C 
ATOM     31  C   UNL d   1      -5.233   0.707   0.254  0.00  0.00     0.150 C 
ATOM     32  C   UNL d   1      -5.176   0.341  -2.716  0.00  0.00     0.252 C 
ATOM     33  N   UNL d   1      -6.575   0.198  -1.994  0.00  0.00    -0.072 N 
ATOM     34  C   UNL d   1      -5.915   0.449  -0.888  0.00  0.00     0.252 C 
ATOM     35  H   UNL d   1      -6.995  -0.731  -2.046  0.00  0.00     0.277 HD
ATOM     36  H   UNL d   1      -7.399   0.728  -2.278  0.00  0.00     0.277 HD
ENDBRANCH  13  21
ENDBRANCH   1   9
TORSDOF 4
