
     RDKit          3D

 31 34  0  0  0  0  0  0  0  0999 V2000
   -2.6983    2.3210    1.2260 C   0  0  0  0  0  0  0  0  0  0  0  0
   -2.0594    1.1311    0.5600 C   0  0  0  0  0  0  0  0  0  0  0  0
   -0.7981    0.7289    0.8864 C   0  0  0  0  0  0  0  0  0  0  0  0
   -0.1837   -0.3792    0.2826 C   0  0  0  0  0  0  0  0  0  0  0  0
    1.1707   -0.6773    0.7048 C   0  0  0  0  0  0  0  0  0  0  0  0
    1.3587   -1.5780    1.7226 C   0  0  0  0  0  0  0  0  0  0  0  0
    0.2098   -2.2512    2.3279 C   0  0  0  0  0  0  0  0  0  0  0  0
    0.6649   -3.3070    3.2455 N   0  0  0  0  0  0  0  0  0  0  0  0
    2.6334   -1.8805    2.1993 C   0  0  0  0  0  0  0  0  0  0  0  0
    3.7209   -1.2716    1.6470 C   0  0  0  0  0  0  0  0  0  0  0  0
    3.5846   -0.3408    0.6001 C   0  0  0  0  0  0  0  0  0  0  0  0
    4.7899    0.2428    0.0618 C   0  0  0  0  0  0  0  0  0  0  0  0
    4.8439    1.5541   -0.3438 C   0  0  0  0  0  0  0  0  0  0  0  0
    6.0040    2.1151   -0.8267 C   0  0  0  0  0  0  0  0  0  0  0  0
    7.1886    1.3963   -0.9356 C   0  0  0  0  0  0  0  0  0  0  0  0
    7.1432    0.0596   -0.5246 C   0  0  0  0  0  0  0  0  0  0  0  0
    8.3687   -0.6780   -0.6176 C   0  0  0  0  0  0  0  0  0  0  0  0
    9.3792   -1.2721   -0.7098 N   0  0  0  0  0  0  0  0  0  0  0  0
    5.9838   -0.4614   -0.0554 C   0  0  0  0  0  0  0  0  0  0  0  0
    2.3004   -0.0845    0.1729 C   0  0  0  0  0  0  0  0  0  0  0  0
    2.1292    0.8248   -0.8401 F   0  0  0  0  0  0  0  0  0  0  0  0
   -0.8692   -1.0970   -0.6746 C   0  0  0  0  0  0  0  0  0  0  0  0
   -0.2541   -2.1606   -1.2323 F   0  0  0  0  0  0  0  0  0  0  0  0
   -2.1403   -0.6968   -1.0060 C   0  0  0  0  0  0  0  0  0  0  0  0
   -2.7623    0.4071   -0.4120 C   0  0  0  0  0  0  0  0  0  0  0  0
   -4.0081    0.8308   -0.7633 N   0  0  0  0  0  0  0  0  0  0  0  0
   -4.2516    1.5206   -2.1364 C   0  0  0  0  0  0  0  0  0  0  0  0
   -5.1757    0.3414   -2.7161 C   0  0  0  0  0  0  0  0  0  0  0  0
   -6.5751    0.1977   -1.9945 N   0  0  0  0  0  0  0  0  0  0  0  0
   -5.9154    0.4489   -0.8883 C   0  0  0  0  0  0  0  0  0  0  0  0
   -5.2333    0.7073    0.2538 C   0  0  0  0  0  0  0  0  0  0  0  0
  1  2  1  0
  2  3  2  0
  3  4  1  0
  4  5  1  0
  5  6  2  0
  6  7  1  0
  7  8  1  0
  6  9  1  0
  9 10  2  0
 10 11  1  0
 11 12  1  0
 12 13  2  0
 13 14  1  0
 14 15  2  0
 15 16  1  0
 16 17  1  0
 17 18  3  0
 16 19  2  0
 11 20  2  0
 20 21  1  0
  4 22  2  0
 22 23  1  0
 22 24  1  0
 24 25  2  0
 25 26  1  0
 26 27  1  0
 27 28  1  0
 28 29  1  0
 29 30  1  0
 30 31  1  0
 25  2  1  0
 31 26  1  0
 20  5  1  0
 19 12  1  0
M  END
$$$$
