MODEL 1
REMARK VINA RESULT:      -9.4      0.000      0.000
REMARK  5 active torsions:
REMARK  status: ('A' for Active; 'I' for Inactive)
REMARK    1  A    between atoms: C_2  and  C_3 
REMARK    2  A    between atoms: C_6  and  C_7 
REMARK    3  A    between atoms: C_13  and  C_14 
REMARK    4  A    between atoms: C_17  and  N_18 
REMARK       I    between atoms: N_18  and  C_19 
REMARK    5  A    between atoms: C_19  and  C_21 
ROOT
ATOM      1  C   UNL d   1       0.004 -30.846 -12.847  0.00  0.00     0.002 A 
ATOM      2  C   UNL d   1      -0.979 -29.881 -13.146  0.00  0.00     0.016 A 
ATOM      3  C   UNL d   1      -1.949 -29.572 -12.206  0.00  0.00     0.025 A 
ATOM      4  C   UNL d   1      -2.045 -30.145 -10.952  0.00  0.00     0.064 A 
ATOM      5  C   UNL d   1      -2.980 -29.812  -9.957  0.00  0.00     0.100 C 
ATOM      6  N   UNL d   1      -3.769 -29.546  -9.105  0.00  0.00    -0.191 NA
ATOM      7  C   UNL d   1      -1.048 -31.123 -10.663  0.00  0.00     0.089 A 
ATOM      8  C   UNL d   1      -0.154 -31.387 -11.590  0.00  0.00     0.064 A 
ENDROOT
BRANCH   7   9
ATOM      9  C   UNL d   1      -1.027 -31.747  -9.304  0.00  0.00     0.213 C 
ATOM     10  O   UNL d   1      -1.552 -32.806  -9.019  0.00  0.00    -0.644 OA
ATOM     11  O   UNL d   1      -0.338 -31.060  -8.271  0.00  0.00    -0.644 OA
ENDBRANCH   7   9
BRANCH   8  12
ATOM     12  N   UNL d   1       0.768 -32.512 -11.317  0.00  0.00    -0.332 N 
ATOM     13  C   UNL d   1       1.939 -32.187 -10.651  0.00  0.00     0.189 C 
ATOM     14  O   UNL d   1       2.143 -30.904 -10.272  0.00  0.00    -0.171 OA
ATOM     15  H   UNL d   1       0.562 -33.434 -11.593  0.00  0.00     0.168 HD
BRANCH  13  16
ATOM     16  C   UNL d   1       2.999 -33.084 -10.299  0.00  0.00     0.021 A 
ATOM     17  C   UNL d   1       3.080 -33.563  -8.985  0.00  0.00     0.038 A 
ATOM     18  C   UNL d   1       4.074 -34.274  -8.498  0.00  0.00     0.047 A 
ATOM     19  C   UNL d   1       4.213 -34.756  -7.128  0.00  0.00     0.099 C 
ATOM     20  C   UNL d   1       5.206 -34.586  -9.412  0.00  0.00     0.045 A 
ATOM     21  N   UNL d   1       4.329 -35.096  -6.118  0.00  0.00    -0.191 NA
ATOM     22  C   UNL d   1       5.060 -34.106 -10.643  0.00  0.00     0.047 A 
ATOM     23  C   UNL d   1       6.305 -34.396 -11.503  0.00  0.00     0.099 C 
ATOM     24  C   UNL d   1       4.065 -33.386 -11.188  0.00  0.00     0.038 A 
ATOM     25  N   UNL d   1       7.169 -34.590 -12.110  0.00  0.00    -0.191 NA
ENDBRANCH  13  16
ENDBRANCH   8  12
BRANCH   1  26
ATOM     26  C   UNL d   1       1.140 -31.169 -13.700  0.00  0.00    -0.024 A 
ATOM     27  C   UNL d   1       2.371 -30.910 -13.600  0.00  0.00     0.013 A 
ATOM     28  C   UNL d   1       3.407 -31.107 -14.500  0.00  0.00     0.012 A 
ATOM     29  C   UNL d   1       2.998 -31.670 -15.635  0.00  0.00    -0.037 A 
ATOM     30  C   UNL d   1       1.656 -32.058 -15.966  0.00  0.00     0.012 A 
ATOM     31  C   UNL d   1       0.704 -31.795 -14.964  0.00  0.00     0.013 A 
BRANCH  29  32
ATOM     32  C   UNL d   1       3.965 -31.877 -16.812  0.00  0.00     0.001 C 
ATOM     33  C   UNL d   1       5.061 -31.284 -16.818  0.00  0.00     0.012 C 
ENDBRANCH  29  32
ENDBRANCH   1  26
TORSDOF 5
ENDMDL
MODEL 2
REMARK VINA RESULT:      -9.2      2.584      5.827
REMARK  5 active torsions:
REMARK  status: ('A' for Active; 'I' for Inactive)
REMARK    1  A    between atoms: C_2  and  C_3 
REMARK    2  A    between atoms: C_6  and  C_7 
REMARK    3  A    between atoms: C_13  and  C_14 
REMARK    4  A    between atoms: C_17  and  N_18 
REMARK       I    between atoms: N_18  and  C_19 
REMARK    5  A    between atoms: C_19  and  C_21 
ROOT
ATOM      1  C   UNL d   1       2.720 -31.915  -9.134  0.00  0.00     0.002 A 
ATOM      2  C   UNL d   1       2.986 -32.405  -7.840  0.00  0.00     0.016 A 
ATOM      3  C   UNL d   1       1.996 -32.367  -6.872  0.00  0.00     0.025 A 
ATOM      4  C   UNL d   1       0.720 -31.872  -7.066  0.00  0.00     0.064 A 
ATOM      5  C   UNL d   1      -0.322 -31.874  -6.123  0.00  0.00     0.100 C 
ATOM      6  N   UNL d   1      -1.215 -31.861  -5.334  0.00  0.00    -0.191 NA
ATOM      7  C   UNL d   1       0.465 -31.375  -8.378  0.00  0.00     0.089 A 
ATOM      8  C   UNL d   1       1.438 -31.426  -9.259  0.00  0.00     0.064 A 
ENDROOT
BRANCH   7   9
ATOM      9  C   UNL d   1      -0.911 -30.885  -8.704  0.00  0.00     0.213 C 
ATOM     10  O   UNL d   1      -1.233 -29.714  -8.766  0.00  0.00    -0.644 OA
ATOM     11  O   UNL d   1      -1.913 -31.854  -8.970  0.00  0.00    -0.644 OA
ENDBRANCH   7   9
BRANCH   8  12
ATOM     12  N   UNL d   1       1.188 -30.763 -10.558  0.00  0.00    -0.332 N 
ATOM     13  C   UNL d   1       0.631 -31.558 -11.547  0.00  0.00     0.189 C 
ATOM     14  O   UNL d   1       0.328 -32.845 -11.258  0.00  0.00    -0.171 OA
ATOM     15  H   UNL d   1       1.405 -29.815 -10.710  0.00  0.00     0.168 HD
BRANCH  13  16
ATOM     16  C   UNL d   1       0.324 -31.164 -12.889  0.00  0.00     0.021 A 
ATOM     17  C   UNL d   1      -0.916 -30.570 -13.160  0.00  0.00     0.038 A 
ATOM     18  C   UNL d   1      -1.377 -30.292 -14.359  0.00  0.00     0.047 A 
ATOM     19  C   UNL d   1      -2.676 -29.713 -14.683  0.00  0.00     0.099 C 
ATOM     20  C   UNL d   1      -0.517 -30.644 -15.522  0.00  0.00     0.045 A 
ATOM     21  N   UNL d   1      -3.637 -29.304 -14.927  0.00  0.00    -0.191 NA
ATOM     22  C   UNL d   1       0.645 -31.197 -15.193  0.00  0.00     0.047 A 
ATOM     23  C   UNL d   1       1.440 -31.609 -16.447  0.00  0.00     0.099 C 
ATOM     24  C   UNL d   1       1.162 -31.492 -13.988  0.00  0.00     0.038 A 
ATOM     25  N   UNL d   1       2.000 -31.903 -17.314  0.00  0.00    -0.191 NA
ENDBRANCH  13  16
ENDBRANCH   8  12
BRANCH   1  26
ATOM     26  C   UNL d   1       3.634 -32.009 -10.265  0.00  0.00    -0.024 A 
ATOM     27  C   UNL d   1       4.290 -31.135 -10.896  0.00  0.00     0.013 A 
ATOM     28  C   UNL d   1       5.039 -31.237 -12.057  0.00  0.00     0.012 A 
ATOM     29  C   UNL d   1       5.052 -32.474 -12.550  0.00  0.00    -0.037 A 
ATOM     30  C   UNL d   1       4.391 -33.625 -11.999  0.00  0.00     0.012 A 
ATOM     31  C   UNL d   1       3.661 -33.376 -10.822  0.00  0.00     0.013 A 
BRANCH  29  32
ATOM     32  C   UNL d   1       5.733 -32.789 -13.892  0.00  0.00     0.001 C 
ATOM     33  C   UNL d   1       5.560 -32.023 -14.861  0.00  0.00     0.012 C 
ENDBRANCH  29  32
ENDBRANCH   1  26
TORSDOF 5
ENDMDL
MODEL 3
REMARK VINA RESULT:      -9.1      1.757      6.310
REMARK  5 active torsions:
REMARK  status: ('A' for Active; 'I' for Inactive)
REMARK    1  A    between atoms: C_2  and  C_3 
REMARK    2  A    between atoms: C_6  and  C_7 
REMARK    3  A    between atoms: C_13  and  C_14 
REMARK    4  A    between atoms: C_17  and  N_18 
REMARK       I    between atoms: N_18  and  C_19 
REMARK    5  A    between atoms: C_19  and  C_21 
ROOT
ATOM      1  C   UNL d   1       3.535 -32.926 -12.070  0.00  0.00     0.002 A 
ATOM      2  C   UNL d   1       4.527 -33.885 -11.780  0.00  0.00     0.016 A 
ATOM      3  C   UNL d   1       4.708 -34.316 -10.476  0.00  0.00     0.025 A 
ATOM      4  C   UNL d   1       3.976 -33.875  -9.389  0.00  0.00     0.064 A 
ATOM      5  C   UNL d   1       4.097 -34.336  -8.067  0.00  0.00     0.100 C 
ATOM      6  N   UNL d   1       4.190 -34.709  -6.939  0.00  0.00    -0.191 NA
ATOM      7  C   UNL d   1       2.979 -32.903  -9.694  0.00  0.00     0.089 A 
ATOM      8  C   UNL d   1       2.850 -32.520 -10.945  0.00  0.00     0.064 A 
ENDROOT
BRANCH   7   9
ATOM      9  C   UNL d   1       2.088 -32.419  -8.593  0.00  0.00     0.213 C 
ATOM     10  O   UNL d   1       2.192 -31.342  -8.040  0.00  0.00    -0.644 OA
ATOM     11  O   UNL d   1       1.037 -33.274  -8.169  0.00  0.00    -0.644 OA
ENDBRANCH   7   9
BRANCH   8  12
ATOM     12  N   UNL d   1       1.915 -31.402 -11.200  0.00  0.00    -0.332 N 
ATOM     13  C   UNL d   1       0.584 -31.750 -11.360  0.00  0.00     0.189 C 
ATOM     14  O   UNL d   1       0.228 -33.050 -11.240  0.00  0.00    -0.171 OA
ATOM     15  H   UNL d   1       2.222 -30.468 -11.255  0.00  0.00     0.168 HD
BRANCH  13  16
ATOM     16  C   UNL d   1      -0.504 -30.863 -11.644  0.00  0.00     0.021 A 
ATOM     17  C   UNL d   1      -1.355 -30.470 -10.603  0.00  0.00     0.038 A 
ATOM     18  C   UNL d   1      -2.464 -29.779 -10.751  0.00  0.00     0.047 A 
ATOM     19  C   UNL d   1      -3.396 -29.387  -9.699  0.00  0.00     0.099 C 
ATOM     20  C   UNL d   1      -2.849 -29.389 -12.135  0.00  0.00     0.045 A 
ATOM     21  N   UNL d   1      -4.093 -29.112  -8.933  0.00  0.00    -0.191 NA
ATOM     22  C   UNL d   1      -1.994 -29.788 -13.071  0.00  0.00     0.047 A 
ATOM     23  C   UNL d   1      -2.502 -29.422 -14.479  0.00  0.00     0.099 C 
ATOM     24  C   UNL d   1      -0.850 -30.486 -12.970  0.00  0.00     0.038 A 
ATOM     25  N   UNL d   1      -2.848 -29.176 -15.465  0.00  0.00    -0.191 NA
ENDBRANCH  13  16
ENDBRANCH   8  12
BRANCH   1  26
ATOM     26  C   UNL d   1       3.169 -32.485 -13.409  0.00  0.00    -0.024 A 
ATOM     27  C   UNL d   1       2.228 -32.820 -14.181  0.00  0.00     0.013 A 
ATOM     28  C   UNL d   1       1.990 -32.488 -15.505  0.00  0.00     0.012 A 
ATOM     29  C   UNL d   1       2.919 -31.674 -16.003  0.00  0.00    -0.037 A 
ATOM     30  C   UNL d   1       4.067 -31.157 -15.311  0.00  0.00     0.012 A 
ATOM     31  C   UNL d   1       4.189 -31.581 -13.975  0.00  0.00     0.013 A 
BRANCH  29  32
ATOM     32  C   UNL d   1       2.908 -31.268 -17.485  0.00  0.00     0.001 C 
ATOM     33  C   UNL d   1       1.868 -30.793 -17.983  0.00  0.00     0.012 C 
ENDBRANCH  29  32
ENDBRANCH   1  26
TORSDOF 5
ENDMDL
MODEL 4
REMARK VINA RESULT:      -9.0      2.471      3.918
REMARK  5 active torsions:
REMARK  status: ('A' for Active; 'I' for Inactive)
REMARK    1  A    between atoms: C_2  and  C_3 
REMARK    2  A    between atoms: C_6  and  C_7 
REMARK    3  A    between atoms: C_13  and  C_14 
REMARK    4  A    between atoms: C_17  and  N_18 
REMARK       I    between atoms: N_18  and  C_19 
REMARK    5  A    between atoms: C_19  and  C_21 
ROOT
ATOM      1  C   UNL d   1      -3.329 -29.469 -11.342  0.00  0.00     0.002 A 
ATOM      2  C   UNL d   1      -4.671 -29.140 -11.061  0.00  0.00     0.016 A 
ATOM      3  C   UNL d   1      -5.040 -28.796  -9.771  0.00  0.00     0.025 A 
ATOM      4  C   UNL d   1      -4.180 -28.743  -8.690  0.00  0.00     0.064 A 
ATOM      5  C   UNL d   1      -4.513 -28.343  -7.385  0.00  0.00     0.100 C 
ATOM      6  N   UNL d   1      -4.779 -28.012  -6.272  0.00  0.00    -0.191 NA
ATOM      7  C   UNL d   1      -2.827 -29.083  -8.986  0.00  0.00     0.089 A 
ATOM      8  C   UNL d   1      -2.528 -29.409 -10.223  0.00  0.00     0.064 A 
ENDROOT
BRANCH   7   9
ATOM      9  C   UNL d   1      -1.809 -28.985  -7.894  0.00  0.00     0.213 C 
ATOM     10  O   UNL d   1      -1.392 -29.927  -7.248  0.00  0.00    -0.644 OA
ATOM     11  O   UNL d   1      -1.281 -27.702  -7.594  0.00  0.00    -0.644 OA
ENDBRANCH   7   9
BRANCH   8  12
ATOM     12  N   UNL d   1      -1.153 -29.903 -10.460  0.00  0.00    -0.332 N 
ATOM     13  C   UNL d   1      -0.955 -31.261 -10.267  0.00  0.00     0.189 C 
ATOM     14  O   UNL d   1      -2.010 -32.033  -9.917  0.00  0.00    -0.171 OA
ATOM     15  H   UNL d   1      -0.423 -29.303 -10.737  0.00  0.00     0.168 HD
BRANCH  13  16
ATOM     16  C   UNL d   1       0.281 -31.973 -10.401  0.00  0.00     0.021 A 
ATOM     17  C   UNL d   1       0.892 -32.502  -9.258  0.00  0.00     0.038 A 
ATOM     18  C   UNL d   1       2.087 -33.051  -9.222  0.00  0.00     0.047 A 
ATOM     19  C   UNL d   1       2.772 -33.575  -8.046  0.00  0.00     0.099 C 
ATOM     20  C   UNL d   1       2.853 -33.106 -10.496  0.00  0.00     0.045 A 
ATOM     21  N   UNL d   1       3.288 -33.945  -7.182  0.00  0.00    -0.191 NA
ATOM     22  C   UNL d   1       2.212 -32.593 -11.541  0.00  0.00     0.047 A 
ATOM     23  C   UNL d   1       3.098 -32.610 -12.801  0.00  0.00     0.099 C 
ATOM     24  C   UNL d   1       0.994 -32.032 -11.629  0.00  0.00     0.038 A 
ATOM     25  N   UNL d   1       3.709 -32.613 -13.684  0.00  0.00    -0.191 NA
ENDBRANCH  13  16
ENDBRANCH   8  12
BRANCH   1  26
ATOM     26  C   UNL d   1      -2.796 -29.729 -12.672  0.00  0.00    -0.024 A 
ATOM     27  C   UNL d   1      -1.614 -29.791 -13.111  0.00  0.00     0.013 A 
ATOM     28  C   UNL d   1      -1.141 -29.898 -14.409  0.00  0.00     0.012 A 
ATOM     29  C   UNL d   1      -2.123 -29.950 -15.308  0.00  0.00    -0.037 A 
ATOM     30  C   UNL d   1      -3.534 -29.907 -15.041  0.00  0.00     0.012 A 
ATOM     31  C   UNL d   1      -3.872 -29.791 -13.681  0.00  0.00     0.013 A 
BRANCH  29  32
ATOM     32  C   UNL d   1      -1.821 -29.960 -16.815  0.00  0.00     0.001 C 
ATOM     33  C   UNL d   1      -0.790 -30.524 -17.230  0.00  0.00     0.012 C 
ENDBRANCH  29  32
ENDBRANCH   1  26
TORSDOF 5
ENDMDL
MODEL 5
REMARK VINA RESULT:      -9.0      2.432      6.254
REMARK  5 active torsions:
REMARK  status: ('A' for Active; 'I' for Inactive)
REMARK    1  A    between atoms: C_2  and  C_3 
REMARK    2  A    between atoms: C_6  and  C_7 
REMARK    3  A    between atoms: C_13  and  C_14 
REMARK    4  A    between atoms: C_17  and  N_18 
REMARK       I    between atoms: N_18  and  C_19 
REMARK    5  A    between atoms: C_19  and  C_21 
ROOT
ATOM      1  C   UNL d   1      -0.725 -30.356 -13.683  0.00  0.00     0.002 A 
ATOM      2  C   UNL d   1      -1.082 -30.451 -15.043  0.00  0.00     0.016 A 
ATOM      3  C   UNL d   1      -0.168 -30.940 -15.962  0.00  0.00     0.025 A 
ATOM      4  C   UNL d   1       1.113 -31.361 -15.656  0.00  0.00     0.064 A 
ATOM      5  C   UNL d   1       2.040 -31.915 -16.555  0.00  0.00     0.100 C 
ATOM      6  N   UNL d   1       2.841 -32.381 -17.304  0.00  0.00    -0.191 NA
ATOM      7  C   UNL d   1       1.463 -31.256 -14.278  0.00  0.00     0.089 A 
ATOM      8  C   UNL d   1       0.564 -30.779 -13.446  0.00  0.00     0.064 A 
ENDROOT
BRANCH   7   9
ATOM      9  C   UNL d   1       2.803 -31.755 -13.839  0.00  0.00     0.213 C 
ATOM     10  O   UNL d   1       3.745 -31.045 -13.545  0.00  0.00    -0.644 OA
ATOM     11  O   UNL d   1       2.989 -33.159 -13.748  0.00  0.00    -0.644 OA
ENDBRANCH   7   9
BRANCH   8  12
ATOM     12  N   UNL d   1       1.013 -30.541 -12.056  0.00  0.00    -0.332 N 
ATOM     13  C   UNL d   1       0.960 -31.634 -11.206  0.00  0.00     0.189 C 
ATOM     14  O   UNL d   1       0.546 -32.826 -11.698  0.00  0.00    -0.171 OA
ATOM     15  H   UNL d   1       1.328 -29.659 -11.754  0.00  0.00     0.168 HD
BRANCH  13  16
ATOM     16  C   UNL d   1       1.307 -31.656  -9.817  0.00  0.00     0.021 A 
ATOM     17  C   UNL d   1       2.618 -31.982  -9.446  0.00  0.00     0.038 A 
ATOM     18  C   UNL d   1       3.030 -32.173  -8.212  0.00  0.00     0.047 A 
ATOM     19  C   UNL d   1       4.374 -32.552  -7.789  0.00  0.00     0.099 C 
ATOM     20  C   UNL d   1       2.023 -32.041  -7.125  0.00  0.00     0.045 A 
ATOM     21  N   UNL d   1       5.355 -32.849  -7.475  0.00  0.00    -0.191 NA
ATOM     22  C   UNL d   1       0.803 -31.725  -7.547  0.00  0.00     0.047 A 
ATOM     23  C   UNL d   1      -0.199 -31.689  -6.377  0.00  0.00     0.099 C 
ATOM     24  C   UNL d   1       0.337 -31.512  -8.789  0.00  0.00     0.038 A 
ATOM     25  N   UNL d   1      -0.906 -31.665  -5.570  0.00  0.00    -0.191 NA
ENDBRANCH  13  16
ENDBRANCH   8  12
BRANCH   1  26
ATOM     26  C   UNL d   1      -1.632 -29.974 -12.609  0.00  0.00    -0.024 A 
ATOM     27  C   UNL d   1      -1.577 -30.138 -11.359  0.00  0.00     0.013 A 
ATOM     28  C   UNL d   1      -2.523 -29.890 -10.377  0.00  0.00     0.012 A 
ATOM     29  C   UNL d   1      -3.654 -29.390 -10.871  0.00  0.00    -0.037 A 
ATOM     30  C   UNL d   1      -3.938 -29.111 -12.251  0.00  0.00     0.012 A 
ATOM     31  C   UNL d   1      -2.891 -29.416 -13.140  0.00  0.00     0.013 A 
BRANCH  29  32
ATOM     32  C   UNL d   1      -4.875 -29.144  -9.971  0.00  0.00     0.001 C 
ATOM     33  C   UNL d   1      -5.721 -28.291 -10.303  0.00  0.00     0.012 C 
ENDBRANCH  29  32
ENDBRANCH   1  26
TORSDOF 5
ENDMDL
MODEL 6
REMARK VINA RESULT:      -8.9      1.940      6.778
REMARK  5 active torsions:
REMARK  status: ('A' for Active; 'I' for Inactive)
REMARK    1  A    between atoms: C_2  and  C_3 
REMARK    2  A    between atoms: C_6  and  C_7 
REMARK    3  A    between atoms: C_13  and  C_14 
REMARK    4  A    between atoms: C_17  and  N_18 
REMARK       I    between atoms: N_18  and  C_19 
REMARK    5  A    between atoms: C_19  and  C_21 
ROOT
ATOM      1  C   UNL d   1       2.131 -31.815 -12.797  0.00  0.00     0.002 A 
ATOM      2  C   UNL d   1       3.153 -32.460 -13.521  0.00  0.00     0.016 A 
ATOM      3  C   UNL d   1       4.098 -33.220 -12.851  0.00  0.00     0.025 A 
ATOM      4  C   UNL d   1       4.131 -33.412 -11.483  0.00  0.00     0.064 A 
ATOM      5  C   UNL d   1       5.040 -34.223 -10.781  0.00  0.00     0.100 C 
ATOM      6  N   UNL d   1       5.806 -34.901 -10.170  0.00  0.00    -0.191 NA
ATOM      7  C   UNL d   1       3.094 -32.751 -10.761  0.00  0.00     0.089 A 
ATOM      8  C   UNL d   1       2.226 -32.036 -11.441  0.00  0.00     0.064 A 
ENDROOT
BRANCH   7   9
ATOM      9  C   UNL d   1       3.006 -32.958  -9.282  0.00  0.00     0.213 C 
ATOM     10  O   UNL d   1       2.522 -33.937  -8.746  0.00  0.00    -0.644 OA
ATOM     11  O   UNL d   1       3.533 -31.946  -8.439  0.00  0.00    -0.644 OA
ENDBRANCH   7   9
BRANCH   8  12
ATOM     12  N   UNL d   1       1.261 -31.242 -10.649  0.00  0.00    -0.332 N 
ATOM     13  C   UNL d   1       0.080 -31.884 -10.313  0.00  0.00     0.189 C 
ATOM     14  O   UNL d   1      -0.095 -33.173 -10.689  0.00  0.00    -0.171 OA
ATOM     15  H   UNL d   1       1.446 -30.314 -10.379  0.00  0.00     0.168 HD
BRANCH  13  16
ATOM     16  C   UNL d   1      -1.019 -31.327  -9.582  0.00  0.00     0.021 A 
ATOM     17  C   UNL d   1      -2.040 -30.670 -10.281  0.00  0.00     0.038 A 
ATOM     18  C   UNL d   1      -3.026 -29.998  -9.727  0.00  0.00     0.047 A 
ATOM     19  C   UNL d   1      -4.083 -29.269 -10.420  0.00  0.00     0.099 C 
ATOM     20  C   UNL d   1      -3.054 -29.923  -8.241  0.00  0.00     0.045 A 
ATOM     21  N   UNL d   1      -4.850 -28.716 -10.923  0.00  0.00    -0.191 NA
ATOM     22  C   UNL d   1      -2.061 -30.573  -7.644  0.00  0.00     0.047 A 
ATOM     23  C   UNL d   1      -2.109 -30.379  -6.116  0.00  0.00     0.099 C 
ATOM     24  C   UNL d   1      -1.040 -31.277  -8.163  0.00  0.00     0.038 A 
ATOM     25  N   UNL d   1      -2.131 -30.248  -5.051  0.00  0.00    -0.191 NA
ENDBRANCH  13  16
ENDBRANCH   8  12
BRANCH   1  26
ATOM     26  C   UNL d   1       1.016 -31.091 -13.395  0.00  0.00    -0.024 A 
ATOM     27  C   UNL d   1       0.290 -30.154 -12.963  0.00  0.00     0.013 A 
ATOM     28  C   UNL d   1      -0.855 -29.584 -13.499  0.00  0.00     0.012 A 
ATOM     29  C   UNL d   1      -1.204 -30.133 -14.660  0.00  0.00    -0.037 A 
ATOM     30  C   UNL d   1      -0.525 -31.199 -15.344  0.00  0.00     0.012 A 
ATOM     31  C   UNL d   1       0.617 -31.688 -14.685  0.00  0.00     0.013 A 
BRANCH  29  32
ATOM     32  C   UNL d   1      -2.503 -29.726 -15.373  0.00  0.00     0.001 C 
ATOM     33  C   UNL d   1      -3.483 -29.355 -14.698  0.00  0.00     0.012 C 
ENDBRANCH  29  32
ENDBRANCH   1  26
TORSDOF 5
ENDMDL
MODEL 7
REMARK VINA RESULT:      -8.9      2.794      6.111
REMARK  5 active torsions:
REMARK  status: ('A' for Active; 'I' for Inactive)
REMARK    1  A    between atoms: C_2  and  C_3 
REMARK    2  A    between atoms: C_6  and  C_7 
REMARK    3  A    between atoms: C_13  and  C_14 
REMARK    4  A    between atoms: C_17  and  N_18 
REMARK       I    between atoms: N_18  and  C_19 
REMARK    5  A    between atoms: C_19  and  C_21 
ROOT
ATOM      1  C   UNL d   1      -0.708 -30.351 -13.616  0.00  0.00     0.002 A 
ATOM      2  C   UNL d   1      -1.073 -30.440 -14.975  0.00  0.00     0.016 A 
ATOM      3  C   UNL d   1      -0.165 -30.923 -15.902  0.00  0.00     0.025 A 
ATOM      4  C   UNL d   1       1.119 -31.344 -15.606  0.00  0.00     0.064 A 
ATOM      5  C   UNL d   1       2.041 -31.892 -16.513  0.00  0.00     0.100 C 
ATOM      6  N   UNL d   1       2.838 -32.353 -17.270  0.00  0.00    -0.191 NA
ATOM      7  C   UNL d   1       1.477 -31.245 -14.230  0.00  0.00     0.089 A 
ATOM      8  C   UNL d   1       0.583 -30.774 -13.390  0.00  0.00     0.064 A 
ENDROOT
BRANCH   7   9
ATOM      9  C   UNL d   1       2.822 -31.744 -13.802  0.00  0.00     0.213 C 
ATOM     10  O   UNL d   1       3.769 -31.033 -13.525  0.00  0.00    -0.644 OA
ATOM     11  O   UNL d   1       3.005 -33.147 -13.700  0.00  0.00    -0.644 OA
ENDBRANCH   7   9
BRANCH   8  12
ATOM     12  N   UNL d   1       1.040 -30.541 -12.002  0.00  0.00    -0.332 N 
ATOM     13  C   UNL d   1       0.999 -31.639 -11.158  0.00  0.00     0.189 C 
ATOM     14  O   UNL d   1       0.588 -32.830 -11.653  0.00  0.00    -0.171 OA
ATOM     15  H   UNL d   1       1.353 -29.659 -11.696  0.00  0.00     0.168 HD
BRANCH  13  16
ATOM     16  C   UNL d   1       1.356 -31.667  -9.771  0.00  0.00     0.021 A 
ATOM     17  C   UNL d   1       0.344 -31.741  -8.806  0.00  0.00     0.038 A 
ATOM     18  C   UNL d   1       0.524 -31.633  -7.508  0.00  0.00     0.047 A 
ATOM     19  C   UNL d   1      -0.507 -31.663  -6.477  0.00  0.00     0.099 C 
ATOM     20  C   UNL d   1       1.915 -31.407  -7.027  0.00  0.00     0.045 A 
ATOM     21  N   UNL d   1      -1.263 -31.666  -5.717  0.00  0.00    -0.191 NA
ATOM     22  C   UNL d   1       2.825 -31.355  -7.994  0.00  0.00     0.047 A 
ATOM     23  C   UNL d   1       4.221 -31.035  -7.427  0.00  0.00     0.099 C 
ATOM     24  C   UNL d   1       2.691 -31.467  -9.327  0.00  0.00     0.038 A 
ATOM     25  N   UNL d   1       5.198 -30.810  -7.043  0.00  0.00    -0.191 NA
ENDBRANCH  13  16
ENDBRANCH   8  12
BRANCH   1  26
ATOM     26  C   UNL d   1      -1.609 -29.976 -12.535  0.00  0.00    -0.024 A 
ATOM     27  C   UNL d   1      -1.546 -30.147 -11.286  0.00  0.00     0.013 A 
ATOM     28  C   UNL d   1      -2.487 -29.905 -10.297  0.00  0.00     0.012 A 
ATOM     29  C   UNL d   1      -3.621 -29.403 -10.782  0.00  0.00    -0.037 A 
ATOM     30  C   UNL d   1      -3.913 -29.116 -12.159  0.00  0.00     0.012 A 
ATOM     31  C   UNL d   1      -2.872 -29.416 -13.056  0.00  0.00     0.013 A 
BRANCH  29  32
ATOM     32  C   UNL d   1      -4.836 -29.163  -9.872  0.00  0.00     0.001 C 
ATOM     33  C   UNL d   1      -5.672 -28.291 -10.182  0.00  0.00     0.012 C 
ENDBRANCH  29  32
ENDBRANCH   1  26
TORSDOF 5
ENDMDL
MODEL 8
REMARK VINA RESULT:      -8.9      2.448      4.493
REMARK  5 active torsions:
REMARK  status: ('A' for Active; 'I' for Inactive)
REMARK    1  A    between atoms: C_2  and  C_3 
REMARK    2  A    between atoms: C_6  and  C_7 
REMARK    3  A    between atoms: C_13  and  C_14 
REMARK    4  A    between atoms: C_17  and  N_18 
REMARK       I    between atoms: N_18  and  C_19 
REMARK    5  A    between atoms: C_19  and  C_21 
ROOT
ATOM      1  C   UNL d   1      -3.306 -29.504 -11.421  0.00  0.00     0.002 A 
ATOM      2  C   UNL d   1      -4.677 -29.269 -11.194  0.00  0.00     0.016 A 
ATOM      3  C   UNL d   1      -5.112 -28.897  -9.933  0.00  0.00     0.025 A 
ATOM      4  C   UNL d   1      -4.294 -28.728  -8.831  0.00  0.00     0.064 A 
ATOM      5  C   UNL d   1      -4.698 -28.296  -7.557  0.00  0.00     0.100 C 
ATOM      6  N   UNL d   1      -5.024 -27.938  -6.468  0.00  0.00    -0.191 NA
ATOM      7  C   UNL d   1      -2.910 -28.973  -9.072  0.00  0.00     0.089 A 
ATOM      8  C   UNL d   1      -2.547 -29.331 -10.284  0.00  0.00     0.064 A 
ENDROOT
BRANCH   7   9
ATOM      9  C   UNL d   1      -1.937 -28.746  -7.958  0.00  0.00     0.213 C 
ATOM     10  O   UNL d   1      -1.383 -27.690  -7.727  0.00  0.00    -0.644 OA
ATOM     11  O   UNL d   1      -1.646 -29.840  -7.101  0.00  0.00    -0.644 OA
ENDBRANCH   7   9
BRANCH   8  12
ATOM     12  N   UNL d   1      -1.131 -29.725 -10.459  0.00  0.00    -0.332 N 
ATOM     13  C   UNL d   1      -0.826 -31.041 -10.149  0.00  0.00     0.189 C 
ATOM     14  O   UNL d   1      -1.821 -31.867  -9.751  0.00  0.00    -0.171 OA
ATOM     15  H   UNL d   1      -0.448 -29.090 -10.774  0.00  0.00     0.168 HD
BRANCH  13  16
ATOM     16  C   UNL d   1       0.467 -31.655 -10.205  0.00  0.00     0.021 A 
ATOM     17  C   UNL d   1       1.167 -31.663 -11.418  0.00  0.00     0.038 A 
ATOM     18  C   UNL d   1       2.291 -32.309 -11.640  0.00  0.00     0.047 A 
ATOM     19  C   UNL d   1       3.027 -32.375 -12.898  0.00  0.00     0.099 C 
ATOM     20  C   UNL d   1       2.858 -33.103 -10.516  0.00  0.00     0.045 A 
ATOM     21  N   UNL d   1       3.562 -32.441 -13.824  0.00  0.00    -0.191 NA
ATOM     22  C   UNL d   1       2.147 -33.045  -9.395  0.00  0.00     0.047 A 
ATOM     23  C   UNL d   1       2.749 -33.955  -8.307  0.00  0.00     0.099 C 
ATOM     24  C   UNL d   1       1.004 -32.395  -9.118  0.00  0.00     0.038 A 
ATOM     25  N   UNL d   1       3.158 -34.589  -7.543  0.00  0.00    -0.191 NA
ENDBRANCH  13  16
ENDBRANCH   8  12
BRANCH   1  26
ATOM     26  C   UNL d   1      -2.712 -29.781 -12.722  0.00  0.00    -0.024 A 
ATOM     27  C   UNL d   1      -1.512 -29.878 -13.099  0.00  0.00     0.013 A 
ATOM     28  C   UNL d   1      -0.976 -30.000 -14.371  0.00  0.00     0.012 A 
ATOM     29  C   UNL d   1      -1.910 -30.026 -15.319  0.00  0.00    -0.037 A 
ATOM     30  C   UNL d   1      -3.332 -29.942 -15.126  0.00  0.00     0.012 A 
ATOM     31  C   UNL d   1      -3.736 -29.814 -13.785  0.00  0.00     0.013 A 
BRANCH  29  32
ATOM     32  C   UNL d   1      -1.532 -30.046 -16.808  0.00  0.00     0.001 C 
ATOM     33  C   UNL d   1      -1.868 -31.018 -17.514  0.00  0.00     0.012 C 
ENDBRANCH  29  32
ENDBRANCH   1  26
TORSDOF 5
ENDMDL
MODEL 9
REMARK VINA RESULT:      -8.9      1.961      6.588
REMARK  5 active torsions:
REMARK  status: ('A' for Active; 'I' for Inactive)
REMARK    1  A    between atoms: C_2  and  C_3 
REMARK    2  A    between atoms: C_6  and  C_7 
REMARK    3  A    between atoms: C_13  and  C_14 
REMARK    4  A    between atoms: C_17  and  N_18 
REMARK       I    between atoms: N_18  and  C_19 
REMARK    5  A    between atoms: C_19  and  C_21 
ROOT
ATOM      1  C   UNL d   1       2.021 -31.821 -12.766  0.00  0.00     0.002 A 
ATOM      2  C   UNL d   1       3.001 -32.582 -13.435  0.00  0.00     0.016 A 
ATOM      3  C   UNL d   1       3.919 -33.318 -12.704  0.00  0.00     0.025 A 
ATOM      4  C   UNL d   1       3.966 -33.377 -11.324  0.00  0.00     0.064 A 
ATOM      5  C   UNL d   1       4.847 -34.159 -10.557  0.00  0.00     0.100 C 
ATOM      6  N   UNL d   1       5.590 -34.810  -9.891  0.00  0.00    -0.191 NA
ATOM      7  C   UNL d   1       2.973 -32.600 -10.659  0.00  0.00     0.089 A 
ATOM      8  C   UNL d   1       2.129 -31.913 -11.396  0.00  0.00     0.064 A 
ENDROOT
BRANCH   7   9
ATOM      9  C   UNL d   1       2.898 -32.658  -9.165  0.00  0.00     0.213 C 
ATOM     10  O   UNL d   1       3.337 -31.807  -8.416  0.00  0.00    -0.644 OA
ATOM     11  O   UNL d   1       2.261 -33.781  -8.578  0.00  0.00    -0.644 OA
ENDBRANCH   7   9
BRANCH   8  12
ATOM     12  N   UNL d   1       1.214 -31.001 -10.674  0.00  0.00    -0.332 N 
ATOM     13  C   UNL d   1       0.012 -31.550 -10.259  0.00  0.00     0.189 C 
ATOM     14  O   UNL d   1      -0.227 -32.860 -10.502  0.00  0.00    -0.171 OA
ATOM     15  H   UNL d   1       1.446 -30.059 -10.501  0.00  0.00     0.168 HD
BRANCH  13  16
ATOM     16  C   UNL d   1      -1.048 -30.873  -9.574  0.00  0.00     0.021 A 
ATOM     17  C   UNL d   1      -1.147 -30.992  -8.182  0.00  0.00     0.038 A 
ATOM     18  C   UNL d   1      -2.143 -30.541  -7.452  0.00  0.00     0.047 A 
ATOM     19  C   UNL d   1      -2.302 -30.681  -6.008  0.00  0.00     0.099 C 
ATOM     20  C   UNL d   1      -3.258 -29.857  -8.162  0.00  0.00     0.045 A 
ATOM     21  N   UNL d   1      -2.432 -30.797  -4.951  0.00  0.00    -0.191 NA
ATOM     22  C   UNL d   1      -3.096 -29.774  -9.478  0.00  0.00     0.047 A 
ATOM     23  C   UNL d   1      -4.325 -29.131 -10.150  0.00  0.00     0.099 C 
ATOM     24  C   UNL d   1      -2.097 -30.209 -10.265  0.00  0.00     0.038 A 
ATOM     25  N   UNL d   1      -5.177 -28.688 -10.629  0.00  0.00    -0.191 NA
ENDBRANCH  13  16
ENDBRANCH   8  12
BRANCH   1  26
ATOM     26  C   UNL d   1       0.933 -31.106 -13.419  0.00  0.00    -0.024 A 
ATOM     27  C   UNL d   1       0.187 -30.166 -13.029  0.00  0.00     0.013 A 
ATOM     28  C   UNL d   1      -0.934 -29.604 -13.619  0.00  0.00     0.012 A 
ATOM     29  C   UNL d   1      -1.232 -30.166 -14.789  0.00  0.00    -0.037 A 
ATOM     30  C   UNL d   1      -0.523 -31.237 -15.432  0.00  0.00     0.012 A 
ATOM     31  C   UNL d   1       0.590 -31.717 -14.718  0.00  0.00     0.013 A 
BRANCH  29  32
ATOM     32  C   UNL d   1      -2.500 -29.769 -15.562  0.00  0.00     0.001 C 
ATOM     33  C   UNL d   1      -3.517 -29.416 -14.932  0.00  0.00     0.012 C 
ENDBRANCH  29  32
ENDBRANCH   1  26
TORSDOF 5
ENDMDL
