REMARK  5 active torsions:
REMARK  status: ('A' for Active; 'I' for Inactive)
REMARK    1  A    between atoms: C_2  and  C_3 
REMARK    2  A    between atoms: C_6  and  C_7 
REMARK    3  A    between atoms: C_13  and  C_14 
REMARK    4  A    between atoms: C_17  and  N_18 
REMARK       I    between atoms: N_18  and  C_19 
REMARK    5  A    between atoms: C_19  and  C_21 
ROOT
ATOM      1  C   UNL d   1       2.003  -1.169   0.519  0.00  0.00     0.002 A 
ATOM      2  C   UNL d   1       3.077  -1.839   1.139  0.00  0.00     0.016 A 
ATOM      3  C   UNL d   1       2.886  -3.105   1.667  0.00  0.00     0.025 A 
ATOM      4  C   UNL d   1       1.692  -3.801   1.641  0.00  0.00     0.064 A 
ATOM      5  C   UNL d   1       1.483  -5.107   2.115  0.00  0.00     0.100 C 
ATOM      6  N   UNL d   1       1.286  -6.211   2.518  0.00  0.00    -0.191 NA
ATOM      7  C   UNL d   1       0.612  -3.111   1.015  0.00  0.00     0.089 A 
ATOM      8  C   UNL d   1       0.841  -1.909   0.536  0.00  0.00     0.064 A 
ENDROOT
BRANCH   7   9
ATOM      9  C   UNL d   1      -0.702  -3.813   0.875  0.00  0.00     0.213 C 
ATOM     10  O   UNL d   1      -1.705  -3.318   0.399  0.00  0.00    -0.644 OA
ATOM     11  O   UNL d   1      -0.784  -5.158   1.320  0.00  0.00    -0.644 OA
ENDBRANCH   7   9
BRANCH   8  12
ATOM     12  N   UNL d   1      -0.335  -1.164   0.034  0.00  0.00    -0.332 N 
ATOM     13  C   UNL d   1      -0.928  -0.291   0.932  0.00  0.00     0.189 C 
ATOM     14  O   UNL d   1      -0.387  -0.153   2.165  0.00  0.00    -0.171 OA
ATOM     15  H   UNL d   1      -0.676  -1.283  -0.882  0.00  0.00     0.168 HD
BRANCH  13  16
ATOM     16  C   UNL d   1      -2.088   0.517   0.701  0.00  0.00     0.021 A 
ATOM     17  C   UNL d   1      -2.034   1.887   0.987  0.00  0.00     0.038 A 
ATOM     18  C   UNL d   1      -3.060   2.709   0.954  0.00  0.00     0.047 A 
ATOM     19  C   UNL d   1      -3.052   4.130   1.284  0.00  0.00     0.099 C 
ATOM     20  C   UNL d   1      -4.385   2.136   0.592  0.00  0.00     0.045 A 
ATOM     21  N   UNL d   1      -3.055   5.170   1.543  0.00  0.00    -0.191 NA
ATOM     22  C   UNL d   1      -4.362   0.834   0.327  0.00  0.00     0.047 A 
ATOM     23  C   UNL d   1      -5.779   0.299   0.044  0.00  0.00     0.099 C 
ATOM     24  C   UNL d   1      -3.343  -0.042   0.339  0.00  0.00     0.038 A 
ATOM     25  N   UNL d   1      -6.762  -0.085  -0.151  0.00  0.00    -0.191 NA
ENDBRANCH  13  16
ENDBRANCH   8  12
BRANCH   1  26
ATOM     26  C   UNL d   1       2.107   0.107  -0.176  0.00  0.00    -0.024 A 
ATOM     27  C   UNL d   1       1.812   1.284   0.171  0.00  0.00     0.013 A 
ATOM     28  C   UNL d   1       1.788   2.459  -0.564  0.00  0.00     0.012 A 
ATOM     29  C   UNL d   1       2.151   2.276  -1.832  0.00  0.00    -0.037 A 
ATOM     30  C   UNL d   1       2.537   1.035  -2.444  0.00  0.00     0.012 A 
ATOM     31  C   UNL d   1       2.510  -0.078  -1.584  0.00  0.00     0.013 A 
BRANCH  29  32
ATOM     32  C   UNL d   1       2.090   3.426  -2.850  0.00  0.00     0.001 C 
ATOM     33  C   UNL d   1       2.578   3.266  -3.986  0.00  0.00     0.012 C 
ENDBRANCH  29  32
ENDBRANCH   1  26
TORSDOF 5
