
     RDKit          3D

 32 34  0  0  0  0  0  0  0  0999 V2000
    2.5782    3.2664   -3.9857 C   0  0  0  0  0  0  0  0  0  0  0  0
    2.0898    3.4259   -2.8496 C   0  0  0  0  0  0  0  0  0  0  0  0
    2.1508    2.2757   -1.8323 C   0  0  0  0  0  0  0  0  0  0  0  0
    1.7878    2.4590   -0.5637 C   0  0  0  0  0  0  0  0  0  0  0  0
    1.8122    1.2845    0.1707 C   0  0  0  0  0  0  0  0  0  0  0  0
    2.1071    0.1071   -0.1763 C   0  0  0  0  0  0  0  0  0  0  0  0
    2.0026   -1.1690    0.5190 C   0  0  0  0  0  0  0  0  0  0  0  0
    3.0772   -1.8392    1.1385 C   0  0  0  0  0  0  0  0  0  0  0  0
    2.8865   -3.1046    1.6673 C   0  0  0  0  0  0  0  0  0  0  0  0
    1.6919   -3.8013    1.6410 C   0  0  0  0  0  0  0  0  0  0  0  0
    1.4832   -5.1075    2.1149 C   0  0  0  0  0  0  0  0  0  0  0  0
    1.2865   -6.2110    2.5180 N   0  0  0  0  0  0  0  0  0  0  0  0
    0.6115   -3.1111    1.0147 C   0  0  0  0  0  0  0  0  0  0  0  0
   -0.7019   -3.8126    0.8749 C   0  0  0  0  0  0  0  0  0  0  0  0
   -1.7052   -3.3182    0.3994 O   0  0  0  0  0  0  0  0  0  0  0  0
   -0.7841   -5.1581    1.3198 O   0  0  0  0  0  0  0  0  0  0  0  0
    0.8410   -1.9085    0.5361 C   0  0  0  0  0  0  0  0  0  0  0  0
   -0.3352   -1.1644    0.0337 N   0  0  0  0  0  0  0  0  0  0  0  0
   -0.9283   -0.2908    0.9318 C   0  0  0  0  0  0  0  0  0  0  0  0
   -0.3869   -0.1533    2.1647 O   0  0  0  0  0  0  0  0  0  0  0  0
   -2.0883    0.5170    0.7010 C   0  0  0  0  0  0  0  0  0  0  0  0
   -2.0337    1.8873    0.9868 C   0  0  0  0  0  0  0  0  0  0  0  0
   -3.0601    2.7095    0.9537 C   0  0  0  0  0  0  0  0  0  0  0  0
   -3.0521    4.1297    1.2842 C   0  0  0  0  0  0  0  0  0  0  0  0
   -3.0554    5.1702    1.5432 N   0  0  0  0  0  0  0  0  0  0  0  0
   -4.3850    2.1362    0.5923 C   0  0  0  0  0  0  0  0  0  0  0  0
   -4.3621    0.8339    0.3268 C   0  0  0  0  0  0  0  0  0  0  0  0
   -5.7793    0.2990    0.0445 C   0  0  0  0  0  0  0  0  0  0  0  0
   -6.7619   -0.0847   -0.1507 N   0  0  0  0  0  0  0  0  0  0  0  0
   -3.3434   -0.0421    0.3387 C   0  0  0  0  0  0  0  0  0  0  0  0
    2.5100   -0.0777   -1.5842 C   0  0  0  0  0  0  0  0  0  0  0  0
    2.5369    1.0354   -2.4444 C   0  0  0  0  0  0  0  0  0  0  0  0
  1  2  2  0
  2  3  1  0
  3  4  2  0
  4  5  1  0
  5  6  2  0
  6  7  1  0
  7  8  2  0
  8  9  1  0
  9 10  2  0
 10 11  1  0
 11 12  3  0
 10 13  1  0
 13 14  1  0
 14 15  2  0
 14 16  1  0
 13 17  2  0
 17 18  1  0
 18 19  1  0
 19 20  2  0
 19 21  1  0
 21 22  2  0
 22 23  1  0
 23 24  1  0
 24 25  3  0
 23 26  2  0
 26 27  1  0
 27 28  1  0
 28 29  3  0
 27 30  2  0
  6 31  1  0
 31 32  2  0
 32  3  1  0
 17  7  1  0
 30 21  1  0
M  END
$$$$
