MODEL 1
REMARK VINA RESULT:      -8.7      0.000      0.000
REMARK  11 active torsions:
REMARK  status: ('A' for Active; 'I' for Inactive)
REMARK    1  A    between atoms: C_3  and  C_28 
REMARK    2  A    between atoms: C_5  and  N_7 
REMARK    3  A    between atoms: N_7  and  C_8 
REMARK    4  A    between atoms: C_11  and  C_25 
REMARK    5  A    between atoms: C_12  and  N_14 
REMARK    6  A    between atoms: N_14  and  C_15 
REMARK    7  A    between atoms: C_15  and  C_16 
REMARK    8  A    between atoms: C_16  and  C_17 
REMARK    9  A    between atoms: C_17  and  N_18 
REMARK       I    between atoms: N_18  and  C_19 
REMARK   10  A    between atoms: C_19  and  C_21 
REMARK   11  A    between atoms: C_28  and  N_29 
ROOT
ATOM      1  C   UNL d   1      -2.258 -30.432 -15.476  0.00  0.00     0.728 A 
ATOM      2  N   UNL d   1      -3.536 -30.149 -15.132  0.00  0.00    -0.074 NA
ATOM      3  C   UNL d   1      -3.795 -29.716 -13.884  0.00  0.00     0.147 A 
ATOM      4  C   UNL d   1      -2.780 -29.555 -12.945  0.00  0.00     0.010 A 
ATOM      5  C   UNL d   1      -1.483 -29.845 -13.305  0.00  0.00     0.150 A 
ATOM      6  N   UNL d   1      -1.269 -30.281 -14.582  0.00  0.00    -0.045 NA
ENDROOT
BRANCH   1   7
ATOM      7  N   UNL d   1      -1.950 -30.893 -16.783  0.00  0.00    -0.188 N 
ATOM      8  H   UNL d   1      -2.659 -31.225 -17.381  0.00  0.00     0.184 HD
BRANCH   7   9
ATOM      9  C   UNL d   1      -0.599 -30.863 -17.207  0.00  0.00     0.050 A 
ATOM     10  C   UNL d   1       0.362 -31.647 -16.585  0.00  0.00     0.038 A 
ATOM     11  C   UNL d   1       1.679 -31.629 -16.987  0.00  0.00    -0.030 A 
ATOM     12  C   UNL d   1       2.073 -30.804 -18.045  0.00  0.00     0.009 A 
ATOM     13  C   UNL d   1       1.137 -30.027 -18.664  0.00  0.00     0.003 A 
ATOM     14  C   UNL d   1      -0.162 -30.065 -18.244  0.00  0.00     0.030 A 
BRANCH  11  15
ATOM     15  C   UNL d   1       2.723 -32.449 -16.344  0.00  0.00     0.273 C 
BRANCH  15  16
ATOM     16  N   UNL d   1       3.043 -32.012 -15.044  0.00  0.00    -0.063 N 
ATOM     17  C   UNL d   1       2.759 -33.144 -14.016  0.00  0.00     0.261 C 
ATOM     18  C   UNL d   1       4.069 -33.644 -14.179  0.00  0.00     0.195 C 
ATOM     19  O   UNL d   1       4.602 -32.448 -13.458  0.00  0.00    -0.388 OA
ATOM     20  C   UNL d   1       4.238 -31.012 -13.652  0.00  0.00     0.195 C 
ATOM     21  C   UNL d   1       4.333 -31.161 -15.065  0.00  0.00     0.261 C 
ATOM     22  H   UNL d   1       2.426 -31.305 -14.645  0.00  0.00     0.280 HD
ENDBRANCH  15  16
ENDBRANCH  11  15
ENDBRANCH   7   9
ENDBRANCH   1   7
BRANCH   5  23
ATOM     23  N   UNL d   1      -0.383 -29.675 -12.455  0.00  0.00    -0.374 N 
ATOM     24  H   UNL d   1      -0.293 -28.836 -11.947  0.00  0.00     0.161 HD
BRANCH  23  25
ATOM     25  C   UNL d   1       0.616 -30.696 -12.308  0.00  0.00     0.123 C 
BRANCH  25  26
ATOM     26  C   UNL d   1       0.669 -31.247 -10.898  0.00  0.00     0.039 C 
BRANCH  26  27
ATOM     27  C   UNL d   1       0.701 -32.732 -10.853  0.00  0.00     0.124 C 
BRANCH  27  28
ATOM     28  N   UNL d   1       1.035 -33.174  -9.519  0.00  0.00    -0.361 N 
ATOM     29  C   UNL d   1       2.316 -33.567  -9.097  0.00  0.00     0.221 C 
ATOM     30  O   UNL d   1       3.269 -33.546  -9.903  0.00  0.00    -0.273 OA
ATOM     31  H   UNL d   1       0.309 -33.200  -8.854  0.00  0.00     0.162 HD
BRANCH  29  32
ATOM     32  C   UNL d   1       2.602 -34.019  -7.697  0.00  0.00     0.078 A 
ATOM     33  C   UNL d   1       3.743 -34.990  -7.603  0.00  0.00     0.014 A 
ATOM     34  C   UNL d   1       4.515 -33.993  -6.789  0.00  0.00     0.002 A 
ATOM     35  C   UNL d   1       3.385 -33.031  -6.882  0.00  0.00     0.014 A 
ENDBRANCH  29  32
ENDBRANCH  27  28
ENDBRANCH  26  27
ENDBRANCH  25  26
ENDBRANCH  23  25
ENDBRANCH   5  23
BRANCH   4  36
ATOM     36  C   UNL d   1      -3.131 -29.123 -11.575  0.00  0.00     0.024 A 
ATOM     37  C   UNL d   1      -4.455 -29.358 -10.994  0.00  0.00     0.010 A 
ATOM     38  C   UNL d   1      -3.379 -30.241 -10.547  0.00  0.00     0.010 A 
ENDBRANCH   4  36
TORSDOF 11
ENDMDL
MODEL 2
REMARK VINA RESULT:      -8.6      2.158      3.375
REMARK  11 active torsions:
REMARK  status: ('A' for Active; 'I' for Inactive)
REMARK    1  A    between atoms: C_3  and  C_28 
REMARK    2  A    between atoms: C_5  and  N_7 
REMARK    3  A    between atoms: N_7  and  C_8 
REMARK    4  A    between atoms: C_11  and  C_25 
REMARK    5  A    between atoms: C_12  and  N_14 
REMARK    6  A    between atoms: N_14  and  C_15 
REMARK    7  A    between atoms: C_15  and  C_16 
REMARK    8  A    between atoms: C_16  and  C_17 
REMARK    9  A    between atoms: C_17  and  N_18 
REMARK       I    between atoms: N_18  and  C_19 
REMARK   10  A    between atoms: C_19  and  C_21 
REMARK   11  A    between atoms: C_28  and  N_29 
ROOT
ATOM      1  C   UNL d   1       0.697 -31.695 -15.989  0.00  0.00     0.728 A 
ATOM      2  N   UNL d   1      -0.366 -31.370 -16.759  0.00  0.00    -0.074 NA
ATOM      3  C   UNL d   1      -1.329 -30.584 -16.244  0.00  0.00     0.147 A 
ATOM      4  C   UNL d   1      -1.254 -30.101 -14.942  0.00  0.00     0.010 A 
ATOM      5  C   UNL d   1      -0.167 -30.435 -14.165  0.00  0.00     0.150 A 
ATOM      6  N   UNL d   1       0.785 -31.236 -14.731  0.00  0.00    -0.045 NA
ENDROOT
BRANCH   1   7
ATOM      7  N   UNL d   1       1.730 -32.524 -16.500  0.00  0.00    -0.188 N 
ATOM      8  H   UNL d   1       1.520 -33.290 -17.084  0.00  0.00     0.184 HD
BRANCH   7   9
ATOM      9  C   UNL d   1       3.069 -32.224 -16.152  0.00  0.00     0.050 A 
ATOM     10  C   UNL d   1       3.680 -32.838 -15.067  0.00  0.00     0.038 A 
ATOM     11  C   UNL d   1       4.982 -32.556 -14.718  0.00  0.00    -0.030 A 
ATOM     12  C   UNL d   1       5.719 -31.630 -15.462  0.00  0.00     0.009 A 
ATOM     13  C   UNL d   1       5.129 -31.019 -16.530  0.00  0.00     0.003 A 
ATOM     14  C   UNL d   1       3.836 -31.317 -16.854  0.00  0.00     0.030 A 
BRANCH  11  15
ATOM     15  C   UNL d   1       5.657 -33.191 -13.570  0.00  0.00     0.273 C 
BRANCH  15  16
ATOM     16  N   UNL d   1       5.243 -32.668 -12.330  0.00  0.00    -0.063 N 
ATOM     17  C   UNL d   1       4.517 -33.766 -11.503  0.00  0.00     0.261 C 
ATOM     18  C   UNL d   1       5.742 -34.172 -10.932  0.00  0.00     0.195 C 
ATOM     19  O   UNL d   1       5.778 -32.904 -10.141  0.00  0.00    -0.388 OA
ATOM     20  C   UNL d   1       5.508 -31.512 -10.610  0.00  0.00     0.195 C 
ATOM     21  C   UNL d   1       6.324 -31.722 -11.758  0.00  0.00     0.261 C 
ATOM     22  H   UNL d   1       4.481 -31.992 -12.361  0.00  0.00     0.280 HD
ENDBRANCH  15  16
ENDBRANCH  11  15
ENDBRANCH   7   9
ENDBRANCH   1   7
BRANCH   5  23
ATOM     23  N   UNL d   1       0.030 -29.968 -12.860  0.00  0.00    -0.374 N 
ATOM     24  H   UNL d   1       0.309 -29.034 -12.721  0.00  0.00     0.161 HD
BRANCH  23  25
ATOM     25  C   UNL d   1      -0.162 -30.821 -11.720  0.00  0.00     0.123 C 
BRANCH  25  26
ATOM     26  C   UNL d   1      -1.420 -30.474 -10.951  0.00  0.00     0.039 C 
BRANCH  26  27
ATOM     27  C   UNL d   1      -1.866 -31.563 -10.043  0.00  0.00     0.124 C 
BRANCH  27  28
ATOM     28  N   UNL d   1      -0.716 -32.251  -9.505  0.00  0.00    -0.361 N 
ATOM     29  C   UNL d   1      -0.337 -32.254  -8.152  0.00  0.00     0.221 C 
ATOM     30  O   UNL d   1      -1.021 -31.629  -7.315  0.00  0.00    -0.273 OA
ATOM     31  H   UNL d   1      -0.154 -32.758 -10.135  0.00  0.00     0.162 HD
BRANCH  29  32
ATOM     32  C   UNL d   1       0.871 -32.986  -7.652  0.00  0.00     0.078 A 
ATOM     33  C   UNL d   1       1.794 -33.436  -8.747  0.00  0.00     0.014 A 
ATOM     34  C   UNL d   1       2.866 -32.538  -8.203  0.00  0.00     0.002 A 
ATOM     35  C   UNL d   1       1.952 -32.092  -7.118  0.00  0.00     0.014 A 
ENDBRANCH  29  32
ENDBRANCH  27  28
ENDBRANCH  26  27
ENDBRANCH  25  26
ENDBRANCH  23  25
ENDBRANCH   5  23
BRANCH   4  36
ATOM     36  C   UNL d   1      -2.366 -29.281 -14.414  0.00  0.00     0.024 A 
ATOM     37  C   UNL d   1      -3.617 -29.088 -15.151  0.00  0.00     0.010 A 
ATOM     38  C   UNL d   1      -3.654 -30.034 -14.037  0.00  0.00     0.010 A 
ENDBRANCH   4  36
TORSDOF 11
ENDMDL
MODEL 3
REMARK VINA RESULT:      -8.6      2.252      4.283
REMARK  11 active torsions:
REMARK  status: ('A' for Active; 'I' for Inactive)
REMARK    1  A    between atoms: C_3  and  C_28 
REMARK    2  A    between atoms: C_5  and  N_7 
REMARK    3  A    between atoms: N_7  and  C_8 
REMARK    4  A    between atoms: C_11  and  C_25 
REMARK    5  A    between atoms: C_12  and  N_14 
REMARK    6  A    between atoms: N_14  and  C_15 
REMARK    7  A    between atoms: C_15  and  C_16 
REMARK    8  A    between atoms: C_16  and  C_17 
REMARK    9  A    between atoms: C_17  and  N_18 
REMARK       I    between atoms: N_18  and  C_19 
REMARK   10  A    between atoms: C_19  and  C_21 
REMARK   11  A    between atoms: C_28  and  N_29 
ROOT
ATOM      1  C   UNL d   1       0.807 -31.544 -16.167  0.00  0.00     0.728 A 
ATOM      2  N   UNL d   1      -0.226 -31.078 -16.906  0.00  0.00    -0.074 NA
ATOM      3  C   UNL d   1      -1.207 -30.389 -16.295  0.00  0.00     0.147 A 
ATOM      4  C   UNL d   1      -1.182 -30.148 -14.925  0.00  0.00     0.010 A 
ATOM      5  C   UNL d   1      -0.125 -30.624 -14.181  0.00  0.00     0.150 A 
ATOM      6  N   UNL d   1       0.847 -31.318 -14.845  0.00  0.00    -0.045 NA
ENDROOT
BRANCH   1   7
ATOM      7  N   UNL d   1       1.857 -32.276 -16.780  0.00  0.00    -0.188 N 
ATOM      8  H   UNL d   1       1.670 -32.919 -17.502  0.00  0.00     0.184 HD
BRANCH   7   9
ATOM      9  C   UNL d   1       3.182 -32.059 -16.328  0.00  0.00     0.050 A 
ATOM     10  C   UNL d   1       3.676 -32.725 -15.215  0.00  0.00     0.038 A 
ATOM     11  C   UNL d   1       4.962 -32.524 -14.766  0.00  0.00    -0.030 A 
ATOM     12  C   UNL d   1       5.802 -31.630 -15.436  0.00  0.00     0.009 A 
ATOM     13  C   UNL d   1       5.328 -30.968 -16.531  0.00  0.00     0.003 A 
ATOM     14  C   UNL d   1       4.048 -31.186 -16.954  0.00  0.00     0.030 A 
BRANCH  11  15
ATOM     15  C   UNL d   1       5.514 -33.216 -13.586  0.00  0.00     0.273 C 
BRANCH  15  16
ATOM     16  N   UNL d   1       5.152 -32.603 -12.370  0.00  0.00    -0.063 N 
ATOM     17  C   UNL d   1       4.282 -33.572 -11.522  0.00  0.00     0.261 C 
ATOM     18  C   UNL d   1       5.438 -34.109 -10.917  0.00  0.00     0.195 C 
ATOM     19  O   UNL d   1       5.623 -32.830 -10.165  0.00  0.00    -0.388 OA
ATOM     20  C   UNL d   1       5.538 -31.432 -10.683  0.00  0.00     0.195 C 
ATOM     21  C   UNL d   1       6.336 -31.782 -11.809  0.00  0.00     0.261 C 
ATOM     22  H   UNL d   1       4.482 -31.837 -12.437  0.00  0.00     0.280 HD
ENDBRANCH  15  16
ENDBRANCH  11  15
ENDBRANCH   7   9
ENDBRANCH   1   7
BRANCH   5  23
ATOM     23  N   UNL d   1       0.023 -30.399 -12.806  0.00  0.00    -0.374 N 
ATOM     24  H   UNL d   1      -0.596 -29.785 -12.350  0.00  0.00     0.161 HD
BRANCH  23  25
ATOM     25  C   UNL d   1       1.060 -31.043 -12.048  0.00  0.00     0.123 C 
BRANCH  25  26
ATOM     26  C   UNL d   1       0.617 -32.381 -11.493  0.00  0.00     0.039 C 
BRANCH  26  27
ATOM     27  C   UNL d   1       0.708 -32.456 -10.012  0.00  0.00     0.124 C 
BRANCH  27  28
ATOM     28  N   UNL d   1       0.023 -31.328  -9.423  0.00  0.00    -0.361 N 
ATOM     29  C   UNL d   1      -1.271 -31.364  -8.878  0.00  0.00     0.221 C 
ATOM     30  O   UNL d   1      -1.914 -32.434  -8.878  0.00  0.00    -0.273 OA
ATOM     31  H   UNL d   1       0.502 -30.467  -9.403  0.00  0.00     0.162 HD
BRANCH  29  32
ATOM     32  C   UNL d   1      -1.931 -30.158  -8.282  0.00  0.00     0.078 A 
ATOM     33  C   UNL d   1      -2.351 -29.140  -9.303  0.00  0.00     0.014 A 
ATOM     34  C   UNL d   1      -3.786 -29.360  -8.921  0.00  0.00     0.002 A 
ATOM     35  C   UNL d   1      -3.370 -30.368  -7.910  0.00  0.00     0.014 A 
ENDBRANCH  29  32
ENDBRANCH  27  28
ENDBRANCH  26  27
ENDBRANCH  25  26
ENDBRANCH  23  25
ENDBRANCH   5  23
BRANCH   4  36
ATOM     36  C   UNL d   1      -2.311 -29.426 -14.300  0.00  0.00     0.024 A 
ATOM     37  C   UNL d   1      -3.476 -28.980 -15.068  0.00  0.00     0.010 A 
ATOM     38  C   UNL d   1      -3.655 -30.175 -14.245  0.00  0.00     0.010 A 
ENDBRANCH   4  36
TORSDOF 11
ENDMDL
MODEL 4
REMARK VINA RESULT:      -8.3      1.867      2.531
REMARK  11 active torsions:
REMARK  status: ('A' for Active; 'I' for Inactive)
REMARK    1  A    between atoms: C_3  and  C_28 
REMARK    2  A    between atoms: C_5  and  N_7 
REMARK    3  A    between atoms: N_7  and  C_8 
REMARK    4  A    between atoms: C_11  and  C_25 
REMARK    5  A    between atoms: C_12  and  N_14 
REMARK    6  A    between atoms: N_14  and  C_15 
REMARK    7  A    between atoms: C_15  and  C_16 
REMARK    8  A    between atoms: C_16  and  C_17 
REMARK    9  A    between atoms: C_17  and  N_18 
REMARK       I    between atoms: N_18  and  C_19 
REMARK   10  A    between atoms: C_19  and  C_21 
REMARK   11  A    between atoms: C_28  and  N_29 
ROOT
ATOM      1  C   UNL d   1      -1.959 -30.429 -15.525  0.00  0.00     0.728 A 
ATOM      2  N   UNL d   1      -3.182 -29.922 -15.246  0.00  0.00    -0.074 NA
ATOM      3  C   UNL d   1      -3.452 -29.520 -13.991  0.00  0.00     0.147 A 
ATOM      4  C   UNL d   1      -2.503 -29.615 -12.977  0.00  0.00     0.010 A 
ATOM      5  C   UNL d   1      -1.260 -30.130 -13.271  0.00  0.00     0.150 A 
ATOM      6  N   UNL d   1      -1.033 -30.526 -14.559  0.00  0.00    -0.045 NA
ENDROOT
BRANCH   1   7
ATOM      7  N   UNL d   1      -1.643 -30.864 -16.838  0.00  0.00    -0.188 N 
ATOM      8  H   UNL d   1      -2.352 -31.152 -17.459  0.00  0.00     0.184 HD
BRANCH   7   9
ATOM      9  C   UNL d   1      -0.283 -30.874 -17.235  0.00  0.00     0.050 A 
ATOM     10  C   UNL d   1       0.650 -31.655 -16.567  0.00  0.00     0.038 A 
ATOM     11  C   UNL d   1       1.975 -31.675 -16.943  0.00  0.00    -0.030 A 
ATOM     12  C   UNL d   1       2.406 -30.895 -18.021  0.00  0.00     0.009 A 
ATOM     13  C   UNL d   1       1.498 -30.122 -18.684  0.00  0.00     0.003 A 
ATOM     14  C   UNL d   1       0.190 -30.122 -18.290  0.00  0.00     0.030 A 
BRANCH  11  15
ATOM     15  C   UNL d   1       2.990 -32.492 -16.252  0.00  0.00     0.273 C 
BRANCH  15  16
ATOM     16  N   UNL d   1       3.479 -31.885 -15.079  0.00  0.00    -0.063 N 
ATOM     17  C   UNL d   1       3.268 -32.827 -13.861  0.00  0.00     0.261 C 
ATOM     18  C   UNL d   1       4.525 -33.428 -14.085  0.00  0.00     0.195 C 
ATOM     19  O   UNL d   1       5.192 -32.173 -13.624  0.00  0.00    -0.388 OA
ATOM     20  C   UNL d   1       4.874 -30.763 -14.000  0.00  0.00     0.195 C 
ATOM     21  C   UNL d   1       4.796 -31.130 -15.374  0.00  0.00     0.261 C 
ATOM     22  H   UNL d   1       2.947 -31.088 -14.731  0.00  0.00     0.280 HD
ENDBRANCH  15  16
ENDBRANCH  11  15
ENDBRANCH   7   9
ENDBRANCH   1   7
BRANCH   5  23
ATOM     23  N   UNL d   1      -0.218 -30.228 -12.339  0.00  0.00    -0.374 N 
ATOM     24  H   UNL d   1       0.116 -29.411 -11.904  0.00  0.00     0.161 HD
BRANCH  23  25
ATOM     25  C   UNL d   1       0.374 -31.494 -12.006  0.00  0.00     0.123 C 
BRANCH  25  26
ATOM     26  C   UNL d   1       1.414 -31.370 -10.912  0.00  0.00     0.039 C 
BRANCH  26  27
ATOM     27  C   UNL d   1       1.127 -32.230  -9.735  0.00  0.00     0.124 C 
BRANCH  27  28
ATOM     28  N   UNL d   1       0.408 -31.470  -8.739  0.00  0.00    -0.361 N 
ATOM     29  C   UNL d   1      -0.940 -31.661  -8.396  0.00  0.00     0.221 C 
ATOM     30  O   UNL d   1      -1.607 -32.547  -8.969  0.00  0.00    -0.273 OA
ATOM     31  H   UNL d   1       0.903 -30.764  -8.262  0.00  0.00     0.162 HD
BRANCH  29  32
ATOM     32  C   UNL d   1      -1.634 -30.838  -7.353  0.00  0.00     0.078 A 
ATOM     33  C   UNL d   1      -0.744 -30.447  -6.209  0.00  0.00     0.014 A 
ATOM     34  C   UNL d   1      -0.908 -29.003  -6.586  0.00  0.00     0.002 A 
ATOM     35  C   UNL d   1      -1.789 -29.391  -7.719  0.00  0.00     0.014 A 
ENDBRANCH  29  32
ENDBRANCH  27  28
ENDBRANCH  26  27
ENDBRANCH  25  26
ENDBRANCH  23  25
ENDBRANCH   5  23
BRANCH   4  36
ATOM     36  C   UNL d   1      -2.871 -29.202 -11.606  0.00  0.00     0.024 A 
ATOM     37  C   UNL d   1      -4.265 -29.053 -11.180  0.00  0.00     0.010 A 
ATOM     38  C   UNL d   1      -3.572 -30.262 -10.737  0.00  0.00     0.010 A 
ENDBRANCH   4  36
TORSDOF 11
ENDMDL
MODEL 5
REMARK VINA RESULT:      -8.3      2.836      6.774
REMARK  11 active torsions:
REMARK  status: ('A' for Active; 'I' for Inactive)
REMARK    1  A    between atoms: C_3  and  C_28 
REMARK    2  A    between atoms: C_5  and  N_7 
REMARK    3  A    between atoms: N_7  and  C_8 
REMARK    4  A    between atoms: C_11  and  C_25 
REMARK    5  A    between atoms: C_12  and  N_14 
REMARK    6  A    between atoms: N_14  and  C_15 
REMARK    7  A    between atoms: C_15  and  C_16 
REMARK    8  A    between atoms: C_16  and  C_17 
REMARK    9  A    between atoms: C_17  and  N_18 
REMARK       I    between atoms: N_18  and  C_19 
REMARK   10  A    between atoms: C_19  and  C_21 
REMARK   11  A    between atoms: C_28  and  N_29 
ROOT
ATOM      1  C   UNL d   1       1.152 -32.688  -9.676  0.00  0.00     0.728 A 
ATOM      2  N   UNL d   1       1.144 -33.042  -8.370  0.00  0.00    -0.074 NA
ATOM      3  C   UNL d   1       0.323 -32.393  -7.524  0.00  0.00     0.147 A 
ATOM      4  C   UNL d   1      -0.513 -31.371  -7.962  0.00  0.00     0.010 A 
ATOM      5  C   UNL d   1      -0.500 -31.020  -9.293  0.00  0.00     0.150 A 
ATOM      6  N   UNL d   1       0.350 -31.706 -10.114  0.00  0.00    -0.045 NA
ENDROOT
BRANCH   1   7
ATOM      7  N   UNL d   1       2.007 -33.351 -10.595  0.00  0.00    -0.188 N 
ATOM      8  H   UNL d   1       1.814 -34.269 -10.892  0.00  0.00     0.184 HD
BRANCH   7   9
ATOM      9  C   UNL d   1       3.146 -32.658 -11.074  0.00  0.00     0.050 A 
ATOM     10  C   UNL d   1       3.107 -31.965 -12.276  0.00  0.00     0.038 A 
ATOM     11  C   UNL d   1       4.207 -31.286 -12.754  0.00  0.00    -0.030 A 
ATOM     12  C   UNL d   1       5.398 -31.287 -12.022  0.00  0.00     0.009 A 
ATOM     13  C   UNL d   1       5.449 -31.966 -10.839  0.00  0.00     0.003 A 
ATOM     14  C   UNL d   1       4.344 -32.630 -10.390  0.00  0.00     0.030 A 
BRANCH  11  15
ATOM     15  C   UNL d   1       4.196 -30.543 -14.028  0.00  0.00     0.273 C 
BRANCH  15  16
ATOM     16  N   UNL d   1       5.077 -31.082 -14.986  0.00  0.00    -0.063 N 
ATOM     17  C   UNL d   1       4.444 -32.339 -15.646  0.00  0.00     0.261 C 
ATOM     18  C   UNL d   1       3.841 -31.537 -16.639  0.00  0.00     0.195 C 
ATOM     19  O   UNL d   1       5.188 -31.292 -17.240  0.00  0.00    -0.388 OA
ATOM     20  C   UNL d   1       6.460 -30.929 -16.545  0.00  0.00     0.195 C 
ATOM     21  C   UNL d   1       5.776 -29.948 -15.771  0.00  0.00     0.261 C 
ATOM     22  H   UNL d   1       5.918 -31.527 -14.621  0.00  0.00     0.280 HD
ENDBRANCH  15  16
ENDBRANCH  11  15
ENDBRANCH   7   9
ENDBRANCH   1   7
BRANCH   5  23
ATOM     23  N   UNL d   1      -1.332 -30.039  -9.848  0.00  0.00    -0.374 N 
ATOM     24  H   UNL d   1      -1.560 -29.244  -9.314  0.00  0.00     0.161 HD
BRANCH  23  25
ATOM     25  C   UNL d   1      -1.861 -30.168 -11.177  0.00  0.00     0.123 C 
BRANCH  25  26
ATOM     26  C   UNL d   1      -3.163 -29.414 -11.351  0.00  0.00     0.039 C 
BRANCH  26  27
ATOM     27  C   UNL d   1      -3.701 -29.492 -12.734  0.00  0.00     0.124 C 
BRANCH  27  28
ATOM     28  N   UNL d   1      -2.615 -29.661 -13.672  0.00  0.00    -0.361 N 
ATOM     29  C   UNL d   1      -2.765 -29.983 -15.031  0.00  0.00     0.221 C 
ATOM     30  O   UNL d   1      -3.908 -30.142 -15.509  0.00  0.00    -0.273 OA
ATOM     31  H   UNL d   1      -1.699 -29.539 -13.332  0.00  0.00     0.162 HD
BRANCH  29  32
ATOM     32  C   UNL d   1      -1.598 -30.147 -15.957  0.00  0.00     0.078 A 
ATOM     33  C   UNL d   1      -0.603 -31.170 -15.490  0.00  0.00     0.014 A 
ATOM     34  C   UNL d   1      -0.903 -32.004 -16.701  0.00  0.00     0.002 A 
ATOM     35  C   UNL d   1      -1.888 -30.990 -17.164  0.00  0.00     0.014 A 
ENDBRANCH  29  32
ENDBRANCH  27  28
ENDBRANCH  26  27
ENDBRANCH  25  26
ENDBRANCH  23  25
ENDBRANCH   5  23
BRANCH   4  36
ATOM     36  C   UNL d   1      -1.359 -30.662  -6.978  0.00  0.00     0.024 A 
ATOM     37  C   UNL d   1      -1.241 -30.889  -5.535  0.00  0.00     0.010 A 
ATOM     38  C   UNL d   1      -0.642 -29.661  -6.054  0.00  0.00     0.010 A 
ENDBRANCH   4  36
TORSDOF 11
ENDMDL
MODEL 6
REMARK VINA RESULT:      -7.8      2.168      6.907
REMARK  11 active torsions:
REMARK  status: ('A' for Active; 'I' for Inactive)
REMARK    1  A    between atoms: C_3  and  C_28 
REMARK    2  A    between atoms: C_5  and  N_7 
REMARK    3  A    between atoms: N_7  and  C_8 
REMARK    4  A    between atoms: C_11  and  C_25 
REMARK    5  A    between atoms: C_12  and  N_14 
REMARK    6  A    between atoms: N_14  and  C_15 
REMARK    7  A    between atoms: C_15  and  C_16 
REMARK    8  A    between atoms: C_16  and  C_17 
REMARK    9  A    between atoms: C_17  and  N_18 
REMARK       I    between atoms: N_18  and  C_19 
REMARK   10  A    between atoms: C_19  and  C_21 
REMARK   11  A    between atoms: C_28  and  N_29 
ROOT
ATOM      1  C   UNL d   1       1.002 -31.557 -14.100  0.00  0.00     0.728 A 
ATOM      2  N   UNL d   1       0.620 -30.627 -13.195  0.00  0.00    -0.074 NA
ATOM      3  C   UNL d   1      -0.494 -29.909 -13.427  0.00  0.00     0.147 A 
ATOM      4  C   UNL d   1      -1.258 -30.103 -14.574  0.00  0.00     0.010 A 
ATOM      5  C   UNL d   1      -0.863 -31.054 -15.489  0.00  0.00     0.150 A 
ATOM      6  N   UNL d   1       0.275 -31.757 -15.210  0.00  0.00    -0.045 NA
ENDROOT
BRANCH   1   7
ATOM      7  N   UNL d   1       2.173 -32.330 -13.887  0.00  0.00    -0.188 N 
ATOM      8  H   UNL d   1       2.525 -32.918 -14.594  0.00  0.00     0.184 HD
BRANCH   7   9
ATOM      9  C   UNL d   1       2.823 -32.235 -12.632  0.00  0.00     0.050 A 
ATOM     10  C   UNL d   1       2.179 -32.615 -11.462  0.00  0.00     0.038 A 
ATOM     11  C   UNL d   1       2.800 -32.528 -10.236  0.00  0.00    -0.030 A 
ATOM     12  C   UNL d   1       4.111 -32.048 -10.151  0.00  0.00     0.009 A 
ATOM     13  C   UNL d   1       4.754 -31.671 -11.293  0.00  0.00     0.003 A 
ATOM     14  C   UNL d   1       4.114 -31.767 -12.496  0.00  0.00     0.030 A 
BRANCH  11  15
ATOM     15  C   UNL d   1       2.141 -32.921  -8.977  0.00  0.00     0.273 C 
BRANCH  15  16
ATOM     16  N   UNL d   1       1.707 -31.818  -8.215  0.00  0.00    -0.063 N 
ATOM     17  C   UNL d   1       0.190 -31.574  -8.445  0.00  0.00     0.261 C 
ATOM     18  C   UNL d   1      -0.130 -32.445  -7.382  0.00  0.00     0.195 C 
ATOM     19  O   UNL d   1       0.389 -31.432  -6.413  0.00  0.00    -0.388 OA
ATOM     20  C   UNL d   1       1.659 -30.649  -6.485  0.00  0.00     0.195 C 
ATOM     21  C   UNL d   1       2.385 -31.825  -6.826  0.00  0.00     0.261 C 
ATOM     22  H   UNL d   1       2.042 -30.905  -8.520  0.00  0.00     0.280 HD
ENDBRANCH  15  16
ENDBRANCH  11  15
ENDBRANCH   7   9
ENDBRANCH   1   7
BRANCH   5  23
ATOM     23  N   UNL d   1      -1.581 -31.361 -16.651  0.00  0.00    -0.374 N 
ATOM     24  H   UNL d   1      -2.527 -31.622 -16.577  0.00  0.00     0.161 HD
BRANCH  23  25
ATOM     25  C   UNL d   1      -0.967 -31.306 -17.949  0.00  0.00     0.123 C 
BRANCH  25  26
ATOM     26  C   UNL d   1       0.006 -30.153 -18.074  0.00  0.00     0.039 C 
BRANCH  26  27
ATOM     27  C   UNL d   1       1.319 -30.557 -18.642  0.00  0.00     0.124 C 
BRANCH  27  28
ATOM     28  N   UNL d   1       2.310 -30.606 -17.592  0.00  0.00    -0.361 N 
ATOM     29  C   UNL d   1       3.376 -31.519 -17.531  0.00  0.00     0.221 C 
ATOM     30  O   UNL d   1       3.517 -32.370 -18.434  0.00  0.00    -0.273 OA
ATOM     31  H   UNL d   1       2.233 -29.947 -16.864  0.00  0.00     0.162 HD
BRANCH  29  32
ATOM     32  C   UNL d   1       4.374 -31.523 -16.413  0.00  0.00     0.078 A 
ATOM     33  C   UNL d   1       5.786 -31.302 -16.871  0.00  0.00     0.014 A 
ATOM     34  C   UNL d   1       5.830 -30.020 -16.092  0.00  0.00     0.002 A 
ATOM     35  C   UNL d   1       4.431 -30.239 -15.638  0.00  0.00     0.014 A 
ENDBRANCH  29  32
ENDBRANCH  27  28
ENDBRANCH  26  27
ENDBRANCH  25  26
ENDBRANCH  23  25
ENDBRANCH   5  23
BRANCH   4  36
ATOM     36  C   UNL d   1      -2.446 -29.252 -14.800  0.00  0.00     0.024 A 
ATOM     37  C   UNL d   1      -3.727 -29.798 -15.253  0.00  0.00     0.010 A 
ATOM     38  C   UNL d   1      -3.628 -29.456 -13.836  0.00  0.00     0.010 A 
ENDBRANCH   4  36
TORSDOF 11
ENDMDL
MODEL 7
REMARK VINA RESULT:      -7.8      2.388      8.562
REMARK  11 active torsions:
REMARK  status: ('A' for Active; 'I' for Inactive)
REMARK    1  A    between atoms: C_3  and  C_28 
REMARK    2  A    between atoms: C_5  and  N_7 
REMARK    3  A    between atoms: N_7  and  C_8 
REMARK    4  A    between atoms: C_11  and  C_25 
REMARK    5  A    between atoms: C_12  and  N_14 
REMARK    6  A    between atoms: N_14  and  C_15 
REMARK    7  A    between atoms: C_15  and  C_16 
REMARK    8  A    between atoms: C_16  and  C_17 
REMARK    9  A    between atoms: C_17  and  N_18 
REMARK       I    between atoms: N_18  and  C_19 
REMARK   10  A    between atoms: C_19  and  C_21 
REMARK   11  A    between atoms: C_28  and  N_29 
ROOT
ATOM      1  C   UNL d   1       4.713 -33.316 -12.244  0.00  0.00     0.728 A 
ATOM      2  N   UNL d   1       5.990 -33.033 -12.589  0.00  0.00    -0.074 NA
ATOM      3  C   UNL d   1       6.221 -32.068 -13.498  0.00  0.00     0.147 A 
ATOM      4  C   UNL d   1       5.179 -31.359 -14.087  0.00  0.00     0.010 A 
ATOM      5  C   UNL d   1       3.882 -31.653 -13.728  0.00  0.00     0.150 A 
ATOM      6  N   UNL d   1       3.697 -32.641 -12.802  0.00  0.00    -0.045 NA
ENDROOT
BRANCH   1   7
ATOM      7  N   UNL d   1       4.434 -34.330 -11.289  0.00  0.00    -0.188 N 
ATOM      8  H   UNL d   1       4.529 -35.282 -11.523  0.00  0.00     0.184 HD
BRANCH   7   9
ATOM      9  C   UNL d   1       4.017 -33.938  -9.994  0.00  0.00     0.050 A 
ATOM     10  C   UNL d   1       2.738 -33.444  -9.774  0.00  0.00     0.038 A 
ATOM     11  C   UNL d   1       2.319 -33.061  -8.519  0.00  0.00    -0.030 A 
ATOM     12  C   UNL d   1       3.191 -33.164  -7.431  0.00  0.00     0.009 A 
ATOM     13  C   UNL d   1       4.451 -33.647  -7.635  0.00  0.00     0.003 A 
ATOM     14  C   UNL d   1       4.840 -34.020  -8.890  0.00  0.00     0.030 A 
BRANCH  11  15
ATOM     15  C   UNL d   1       0.968 -32.531  -8.255  0.00  0.00     0.273 C 
BRANCH  15  16
ATOM     16  N   UNL d   1       0.220 -32.321  -9.430  0.00  0.00    -0.063 N 
ATOM     17  C   UNL d   1      -1.298 -32.296  -9.099  0.00  0.00     0.261 C 
ATOM     18  C   UNL d   1      -1.245 -30.904  -8.874  0.00  0.00     0.195 C 
ATOM     19  O   UNL d   1      -1.059 -30.688 -10.342  0.00  0.00    -0.388 OA
ATOM     20  C   UNL d   1      -0.142 -31.409 -11.275  0.00  0.00     0.195 C 
ATOM     21  C   UNL d   1       0.927 -31.292 -10.341  0.00  0.00     0.261 C 
ATOM     22  H   UNL d   1       0.204 -33.095 -10.094  0.00  0.00     0.280 HD
ENDBRANCH  15  16
ENDBRANCH  11  15
ENDBRANCH   7   9
ENDBRANCH   1   7
BRANCH   5  23
ATOM     23  N   UNL d   1       2.764 -30.972 -14.224  0.00  0.00    -0.374 N 
ATOM     24  H   UNL d   1       2.805 -29.994 -14.332  0.00  0.00     0.161 HD
BRANCH  23  25
ATOM     25  C   UNL d   1       1.557 -31.667 -14.577  0.00  0.00     0.123 C 
BRANCH  25  26
ATOM     26  C   UNL d   1       1.483 -31.970 -16.059  0.00  0.00     0.039 C 
BRANCH  26  27
ATOM     27  C   UNL d   1       0.153 -31.669 -16.649  0.00  0.00     0.124 C 
BRANCH  27  28
ATOM     28  N   UNL d   1      -0.514 -30.660 -15.859  0.00  0.00    -0.361 N 
ATOM     29  C   UNL d   1      -1.906 -30.495 -15.769  0.00  0.00     0.221 C 
ATOM     30  O   UNL d   1      -2.664 -31.260 -16.402  0.00  0.00    -0.273 OA
ATOM     31  H   UNL d   1       0.051 -30.039 -15.344  0.00  0.00     0.162 HD
BRANCH  29  32
ATOM     32  C   UNL d   1      -2.542 -29.426 -14.934  0.00  0.00     0.078 A 
ATOM     33  C   UNL d   1      -3.909 -29.791 -14.432  0.00  0.00     0.014 A 
ATOM     34  C   UNL d   1      -3.397 -29.738 -13.022  0.00  0.00     0.002 A 
ATOM     35  C   UNL d   1      -2.044 -29.376 -13.520  0.00  0.00     0.014 A 
ENDBRANCH  29  32
ENDBRANCH  27  28
ENDBRANCH  26  27
ENDBRANCH  25  26
ENDBRANCH  23  25
ENDBRANCH   5  23
BRANCH   4  36
ATOM     36  C   UNL d   1       5.491 -30.343 -15.115  0.00  0.00     0.024 A 
ATOM     37  C   UNL d   1       6.583 -30.510 -16.077  0.00  0.00     0.010 A 
ATOM     38  C   UNL d   1       5.231 -30.746 -16.578  0.00  0.00     0.010 A 
ENDBRANCH   4  36
TORSDOF 11
ENDMDL
MODEL 8
REMARK VINA RESULT:      -7.7      2.769      8.005
REMARK  11 active torsions:
REMARK  status: ('A' for Active; 'I' for Inactive)
REMARK    1  A    between atoms: C_3  and  C_28 
REMARK    2  A    between atoms: C_5  and  N_7 
REMARK    3  A    between atoms: N_7  and  C_8 
REMARK    4  A    between atoms: C_11  and  C_25 
REMARK    5  A    between atoms: C_12  and  N_14 
REMARK    6  A    between atoms: N_14  and  C_15 
REMARK    7  A    between atoms: C_15  and  C_16 
REMARK    8  A    between atoms: C_16  and  C_17 
REMARK    9  A    between atoms: C_17  and  N_18 
REMARK       I    between atoms: N_18  and  C_19 
REMARK   10  A    between atoms: C_19  and  C_21 
REMARK   11  A    between atoms: C_28  and  N_29 
ROOT
ATOM      1  C   UNL d   1       0.085 -32.512 -10.216  0.00  0.00     0.728 A 
ATOM      2  N   UNL d   1      -1.060 -32.340  -9.516  0.00  0.00    -0.074 NA
ATOM      3  C   UNL d   1      -1.903 -31.355  -9.876  0.00  0.00     0.147 A 
ATOM      4  C   UNL d   1      -1.621 -30.512 -10.948  0.00  0.00     0.010 A 
ATOM      5  C   UNL d   1      -0.455 -30.696 -11.655  0.00  0.00     0.150 A 
ATOM      6  N   UNL d   1       0.370 -31.709 -11.253  0.00  0.00    -0.045 NA
ENDROOT
BRANCH   1   7
ATOM      7  N   UNL d   1       0.997 -33.541  -9.862  0.00  0.00    -0.188 N 
ATOM      8  H   UNL d   1       1.023 -34.387 -10.365  0.00  0.00     0.184 HD
BRANCH   7   9
ATOM      9  C   UNL d   1       1.869 -33.321  -8.767  0.00  0.00     0.050 A 
ATOM     10  C   UNL d   1       1.884 -32.104  -8.099  0.00  0.00     0.038 A 
ATOM     11  C   UNL d   1       2.725 -31.876  -7.033  0.00  0.00    -0.030 A 
ATOM     12  C   UNL d   1       3.592 -32.885  -6.602  0.00  0.00     0.009 A 
ATOM     13  C   UNL d   1       3.587 -34.085  -7.251  0.00  0.00     0.003 A 
ATOM     14  C   UNL d   1       2.742 -34.284  -8.306  0.00  0.00     0.030 A 
BRANCH  11  15
ATOM     15  C   UNL d   1       2.765 -30.594  -6.306  0.00  0.00     0.273 C 
BRANCH  15  16
ATOM     16  N   UNL d   1       1.614 -30.368  -5.526  0.00  0.00    -0.063 N 
ATOM     17  C   UNL d   1       1.948 -30.544  -4.018  0.00  0.00     0.261 C 
ATOM     18  C   UNL d   1       2.295 -29.179  -3.917  0.00  0.00     0.195 C 
ATOM     19  O   UNL d   1       0.853 -28.815  -4.062  0.00  0.00    -0.388 OA
ATOM     20  C   UNL d   1      -0.141 -29.343  -5.044  0.00  0.00     0.195 C 
ATOM     21  C   UNL d   1       0.798 -29.188  -6.103  0.00  0.00     0.261 C 
ATOM     22  H   UNL d   1       0.884 -31.076  -5.590  0.00  0.00     0.280 HD
ENDBRANCH  15  16
ENDBRANCH  11  15
ENDBRANCH   7   9
ENDBRANCH   1   7
BRANCH   5  23
ATOM     23  N   UNL d   1      -0.096 -29.937 -12.776  0.00  0.00    -0.374 N 
ATOM     24  H   UNL d   1      -0.268 -28.968 -12.775  0.00  0.00     0.161 HD
BRANCH  23  25
ATOM     25  C   UNL d   1       0.515 -30.541 -13.927  0.00  0.00     0.123 C 
BRANCH  25  26
ATOM     26  C   UNL d   1      -0.449 -30.666 -15.088  0.00  0.00     0.039 C 
BRANCH  26  27
ATOM     27  C   UNL d   1       0.007 -31.630 -16.124  0.00  0.00     0.124 C 
BRANCH  27  28
ATOM     28  N   UNL d   1       1.411 -31.913 -15.942  0.00  0.00    -0.361 N 
ATOM     29  C   UNL d   1       2.406 -31.721 -16.915  0.00  0.00     0.221 C 
ATOM     30  O   UNL d   1       2.097 -31.270 -18.037  0.00  0.00    -0.273 OA
ATOM     31  H   UNL d   1       1.693 -32.267 -15.067  0.00  0.00     0.162 HD
BRANCH  29  32
ATOM     32  C   UNL d   1       3.850 -32.037 -16.668  0.00  0.00     0.078 A 
ATOM     33  C   UNL d   1       4.719 -30.818 -16.558  0.00  0.00     0.014 A 
ATOM     34  C   UNL d   1       5.027 -31.176 -15.133  0.00  0.00     0.002 A 
ATOM     35  C   UNL d   1       4.167 -32.384 -15.243  0.00  0.00     0.014 A 
ENDBRANCH  29  32
ENDBRANCH  27  28
ENDBRANCH  26  27
ENDBRANCH  25  26
ENDBRANCH  23  25
ENDBRANCH   5  23
BRANCH   4  36
ATOM     36  C   UNL d   1      -2.561 -29.416 -11.267  0.00  0.00     0.024 A 
ATOM     37  C   UNL d   1      -3.530 -29.509 -12.362  0.00  0.00     0.010 A 
ATOM     38  C   UNL d   1      -4.053 -29.696 -11.009  0.00  0.00     0.010 A 
ENDBRANCH   4  36
TORSDOF 11
ENDMDL
MODEL 9
REMARK VINA RESULT:      -7.7      2.361      7.395
REMARK  11 active torsions:
REMARK  status: ('A' for Active; 'I' for Inactive)
REMARK    1  A    between atoms: C_3  and  C_28 
REMARK    2  A    between atoms: C_5  and  N_7 
REMARK    3  A    between atoms: N_7  and  C_8 
REMARK    4  A    between atoms: C_11  and  C_25 
REMARK    5  A    between atoms: C_12  and  N_14 
REMARK    6  A    between atoms: N_14  and  C_15 
REMARK    7  A    between atoms: C_15  and  C_16 
REMARK    8  A    between atoms: C_16  and  C_17 
REMARK    9  A    between atoms: C_17  and  N_18 
REMARK       I    between atoms: N_18  and  C_19 
REMARK   10  A    between atoms: C_19  and  C_21 
REMARK   11  A    between atoms: C_28  and  N_29 
ROOT
ATOM      1  C   UNL d   1      -0.164 -32.380  -8.687  0.00  0.00     0.728 A 
ATOM      2  N   UNL d   1      -1.403 -32.008  -8.292  0.00  0.00    -0.074 NA
ATOM      3  C   UNL d   1      -2.078 -31.106  -9.027  0.00  0.00     0.147 A 
ATOM      4  C   UNL d   1      -1.531 -30.550 -10.180  0.00  0.00     0.010 A 
ATOM      5  C   UNL d   1      -0.270 -30.937 -10.575  0.00  0.00     0.150 A 
ATOM      6  N   UNL d   1       0.377 -31.855  -9.797  0.00  0.00    -0.045 NA
ENDROOT
BRANCH   1   7
ATOM      7  N   UNL d   1       0.577 -33.328  -7.933  0.00  0.00    -0.188 N 
ATOM      8  H   UNL d   1       0.120 -34.044  -7.434  0.00  0.00     0.184 HD
BRANCH   7   9
ATOM      9  C   UNL d   1       1.989 -33.220  -7.917  0.00  0.00     0.050 A 
ATOM     10  C   UNL d   1       2.773 -33.965  -8.787  0.00  0.00     0.038 A 
ATOM     11  C   UNL d   1       4.147 -33.868  -8.782  0.00  0.00    -0.030 A 
ATOM     12  C   UNL d   1       4.782 -33.005  -7.885  0.00  0.00     0.009 A 
ATOM     13  C   UNL d   1       4.022 -32.268  -7.024  0.00  0.00     0.003 A 
ATOM     14  C   UNL d   1       2.662 -32.383  -7.050  0.00  0.00     0.030 A 
BRANCH  11  15
ATOM     15  C   UNL d   1       5.006 -34.648  -9.693  0.00  0.00     0.273 C 
BRANCH  15  16
ATOM     16  N   UNL d   1       5.833 -33.840 -10.497  0.00  0.00    -0.063 N 
ATOM     17  C   UNL d   1       7.327 -34.183 -10.241  0.00  0.00     0.261 C 
ATOM     18  C   UNL d   1       7.293 -35.168 -11.252  0.00  0.00     0.195 C 
ATOM     19  O   UNL d   1       7.207 -34.088 -12.281  0.00  0.00    -0.388 OA
ATOM     20  C   UNL d   1       6.335 -32.875 -12.281  0.00  0.00     0.195 C 
ATOM     21  C   UNL d   1       5.211 -33.663 -11.901  0.00  0.00     0.261 C 
ATOM     22  H   UNL d   1       5.874 -32.852 -10.246  0.00  0.00     0.280 HD
ENDBRANCH  15  16
ENDBRANCH  11  15
ENDBRANCH   7   9
ENDBRANCH   1   7
BRANCH   5  23
ATOM     23  N   UNL d   1       0.356 -30.476 -11.740  0.00  0.00    -0.374 N 
ATOM     24  H   UNL d   1       0.758 -29.578 -11.747  0.00  0.00     0.161 HD
BRANCH  23  25
ATOM     25  C   UNL d   1       0.421 -31.284 -12.926  0.00  0.00     0.123 C 
BRANCH  25  26
ATOM     26  C   UNL d   1       1.840 -31.449 -13.429  0.00  0.00     0.039 C 
BRANCH  26  27
ATOM     27  C   UNL d   1       1.919 -31.631 -14.902  0.00  0.00     0.124 C 
BRANCH  27  28
ATOM     28  N   UNL d   1       0.637 -31.337 -15.499  0.00  0.00    -0.361 N 
ATOM     29  C   UNL d   1       0.406 -31.174 -16.875  0.00  0.00     0.221 C 
ATOM     30  O   UNL d   1       1.353 -31.286 -17.681  0.00  0.00    -0.273 OA
ATOM     31  H   UNL d   1      -0.135 -31.245 -14.895  0.00  0.00     0.162 HD
BRANCH  29  32
ATOM     32  C   UNL d   1      -0.949 -30.866 -17.437  0.00  0.00     0.078 A 
ATOM     33  C   UNL d   1      -1.891 -32.034 -17.401  0.00  0.00     0.014 A 
ATOM     34  C   UNL d   1      -2.781 -31.276 -16.459  0.00  0.00     0.002 A 
ATOM     35  C   UNL d   1      -1.847 -30.120 -16.496  0.00  0.00     0.014 A 
ENDBRANCH  29  32
ENDBRANCH  27  28
ENDBRANCH  26  27
ENDBRANCH  25  26
ENDBRANCH  23  25
ENDBRANCH   5  23
BRANCH   4  36
ATOM     36  C   UNL d   1      -2.300 -29.528 -10.920  0.00  0.00     0.024 A 
ATOM     37  C   UNL d   1      -2.968 -29.818 -12.192  0.00  0.00     0.010 A 
ATOM     38  C   UNL d   1      -3.822 -29.745 -11.007  0.00  0.00     0.010 A 
ENDBRANCH   4  36
TORSDOF 11
ENDMDL
