REMARK  11 active torsions:
REMARK  status: ('A' for Active; 'I' for Inactive)
REMARK    1  A    between atoms: C_3  and  C_28 
REMARK    2  A    between atoms: C_5  and  N_7 
REMARK    3  A    between atoms: N_7  and  C_8 
REMARK    4  A    between atoms: C_11  and  C_25 
REMARK    5  A    between atoms: C_12  and  N_14 
REMARK    6  A    between atoms: N_14  and  C_15 
REMARK    7  A    between atoms: C_15  and  C_16 
REMARK    8  A    between atoms: C_16  and  C_17 
REMARK    9  A    between atoms: C_17  and  N_18 
REMARK       I    between atoms: N_18  and  C_19 
REMARK   10  A    between atoms: C_19  and  C_21 
REMARK   11  A    between atoms: C_28  and  N_29 
ROOT
ATOM      1  C   UNL d   1      -1.231  -2.186   1.703  0.00  0.00     0.728 A 
ATOM      2  N   UNL d   1      -1.168  -3.471   2.121  0.00  0.00    -0.074 NA
ATOM      3  C   UNL d   1      -0.005  -4.138   2.007  0.00  0.00     0.147 A 
ATOM      4  C   UNL d   1       1.129  -3.536   1.470  0.00  0.00     0.010 A 
ATOM      5  C   UNL d   1       1.056  -2.227   1.049  0.00  0.00     0.150 A 
ATOM      6  N   UNL d   1      -0.146  -1.591   1.184  0.00  0.00    -0.045 NA
ENDROOT
BRANCH   1   7
ATOM      7  N   UNL d   1      -2.443  -1.454   1.807  0.00  0.00    -0.188 N 
ATOM      8  H   UNL d   1      -2.652  -0.937   2.619  0.00  0.00     0.184 HD
BRANCH   7   9
ATOM      9  C   UNL d   1      -3.344  -1.485   0.715  0.00  0.00     0.050 A 
ATOM     10  C   UNL d   1      -4.546  -0.792   0.760  0.00  0.00     0.038 A 
ATOM     11  C   UNL d   1      -5.431  -0.813  -0.295  0.00  0.00    -0.030 A 
ATOM     12  C   UNL d   1      -5.126  -1.546  -1.446  0.00  0.00     0.009 A 
ATOM     13  C   UNL d   1      -3.948  -2.232  -1.502  0.00  0.00     0.003 A 
ATOM     14  C   UNL d   1      -3.089  -2.194  -0.441  0.00  0.00     0.030 A 
BRANCH  11  15
ATOM     15  C   UNL d   1      -6.716  -0.089  -0.275  0.00  0.00     0.273 C 
BRANCH  15  16
ATOM     16  N   UNL d   1      -6.625   1.208  -0.817  0.00  0.00    -0.063 N 
ATOM     17  C   UNL d   1      -8.011   1.909  -0.759  0.00  0.00     0.261 C 
ATOM     18  C   UNL d   1      -7.721   2.416   0.526  0.00  0.00     0.195 C 
ATOM     19  O   UNL d   1      -6.724   3.349  -0.082  0.00  0.00    -0.388 OA
ATOM     20  C   UNL d   1      -5.678   3.048  -1.105  0.00  0.00     0.195 C 
ATOM     21  C   UNL d   1      -5.296   1.875  -0.394  0.00  0.00     0.261 C 
ATOM     22  H   UNL d   1      -6.484   1.263  -1.825  0.00  0.00     0.280 HD
ENDBRANCH  15  16
ENDBRANCH  11  15
ENDBRANCH   7   9
ENDBRANCH   1   7
BRANCH   5  23
ATOM     23  N   UNL d   1       2.146  -1.512   0.537  0.00  0.00    -0.374 N 
ATOM     24  H   UNL d   1       3.024  -1.953   0.476  0.00  0.00     0.161 HD
BRANCH  23  25
ATOM     25  C   UNL d   1       2.012  -0.150   0.101  0.00  0.00     0.123 C 
BRANCH  25  26
ATOM     26  C   UNL d   1       3.318   0.418  -0.414  0.00  0.00     0.039 C 
BRANCH  26  27
ATOM     27  C   UNL d   1       4.397   0.418   0.608  0.00  0.00     0.124 C 
BRANCH  27  28
ATOM     28  N   UNL d   1       5.606   0.969   0.041  0.00  0.00    -0.361 N 
ATOM     29  C   UNL d   1       5.738   2.272  -0.467  0.00  0.00     0.221 C 
ATOM     30  O   UNL d   1       4.761   3.049  -0.444  0.00  0.00    -0.273 OA
ATOM     31  H   UNL d   1       6.399   0.386   0.009  0.00  0.00     0.162 HD
BRANCH  29  32
ATOM     32  C   UNL d   1       7.020   2.788  -1.047  0.00  0.00     0.078 A 
ATOM     33  C   UNL d   1       6.931   4.207  -1.528  0.00  0.00     0.014 A 
ATOM     34  C   UNL d   1       7.944   4.612  -0.497  0.00  0.00     0.002 A 
ATOM     35  C   UNL d   1       8.032   3.206  -0.021  0.00  0.00     0.014 A 
ENDBRANCH  29  32
ENDBRANCH  27  28
ENDBRANCH  26  27
ENDBRANCH  25  26
ENDBRANCH  23  25
ENDBRANCH   5  23
BRANCH   4  36
ATOM     36  C   UNL d   1       2.366  -4.333   1.325  0.00  0.00     0.024 A 
ATOM     37  C   UNL d   1       2.425  -5.547   0.507  0.00  0.00     0.010 A 
ATOM     38  C   UNL d   1       3.016  -4.341  -0.070  0.00  0.00     0.010 A 
ENDBRANCH   4  36
TORSDOF 11
