REMARK  5 active torsions:
REMARK  status: ('A' for Active; 'I' for Inactive)
REMARK    1  A    between atoms: C_2  and  C_3 
REMARK    2  A    between atoms: C_6  and  C_7 
REMARK       I    between atoms: C_7  and  N_9 
REMARK       I    between atoms: N_9  and  C_10 
REMARK       I    between atoms: C_10  and  N_12 
REMARK    3  A    between atoms: C_14  and  C_15 
REMARK    4  A    between atoms: C_16  and  C_17 
REMARK    5  A    between atoms: C_18  and  C_19 
ROOT
ATOM      1  C   UNL d   1       1.925  -3.148  -1.702  0.00  0.00    -0.036 A 
ATOM      2  C   UNL d   1       3.169  -2.571  -1.721  0.00  0.00     0.012 A 
ATOM      3  C   UNL d   1       3.408  -1.292  -1.234  0.00  0.00     0.019 A 
ATOM      4  C   UNL d   1       2.411  -0.505  -0.695  0.00  0.00     0.042 A 
ATOM      5  C   UNL d   1       1.134  -1.104  -0.682  0.00  0.00    -0.020 A 
ATOM      6  C   UNL d   1       0.895  -2.367  -1.162  0.00  0.00     0.024 A 
ENDROOT
BRANCH   5   7
ATOM      7  C   UNL d   1       0.002  -0.300  -0.181  0.00  0.00     0.013 C 
ATOM      8  C   UNL d   1      -1.161  -0.799   0.158  0.00  0.00     0.013 C 
BRANCH   8   9
ATOM      9  C   UNL d   1      -2.264   0.023   0.638  0.00  0.00    -0.023 A 
ATOM     10  C   UNL d   1      -3.120  -0.555   1.610  0.00  0.00    -0.043 A 
ATOM     11  C   UNL d   1      -4.192   0.181   2.052  0.00  0.00     0.009 A 
ATOM     12  C   UNL d   1      -4.453   1.443   1.587  0.00  0.00     0.008 A 
ATOM     13  C   UNL d   1      -3.644   2.047   0.637  0.00  0.00    -0.055 A 
ATOM     14  C   UNL d   1      -3.863   3.400   0.094  0.00  0.00     0.049 C 
ATOM     15  C   UNL d   1      -2.555   1.286   0.188  0.00  0.00    -0.045 A 
ATOM     16  C   UNL d   1      -1.747   1.889  -0.935  0.00  0.00     0.049 C 
BRANCH  10  17
ATOM     17  C   UNL d   1      -2.839  -1.896   2.130  0.00  0.00     0.019 A 
ATOM     18  C   UNL d   1      -3.744  -3.059   1.918  0.00  0.00     0.010 A 
ATOM     19  C   UNL d   1      -3.581  -2.473   3.281  0.00  0.00     0.010 A 
ENDBRANCH  10  17
ENDBRANCH   8   9
ENDBRANCH   5   7
BRANCH   4  20
ATOM     20  C   UNL d   1       2.589   0.774  -0.089  0.00  0.00     0.260 C 
ATOM     21  O   UNL d   1       2.178   1.369   0.817  0.00  0.00    -0.267 OA
ATOM     22  N   UNL d   1       3.782   1.683  -0.991  0.00  0.00    -0.275 N 
ATOM     23  C   UNL d   1       3.794   2.782  -0.154  0.00  0.00     0.322 C 
ATOM     24  H   UNL d   1       4.277   1.479  -1.817  0.00  0.00     0.173 HD
ATOM     25  O   UNL d   1       3.197   3.183   0.788  0.00  0.00    -0.247 OA
ATOM     26  N   UNL d   1       4.913   3.718  -0.595  0.00  0.00    -0.347 N 
ATOM     27  C   UNL d   1       5.093   4.919   0.126  0.00  0.00     0.151 C 
ATOM     28  H   UNL d   1       5.492   3.493  -1.359  0.00  0.00     0.163 HD
ENDBRANCH   4  20
BRANCH   1  29
ATOM     29  C   UNL d   1       1.653  -4.488  -2.191  0.00  0.00     0.001 C 
ATOM     30  C   UNL d   1       2.582  -5.235  -2.735  0.00  0.00     0.012 C 
ENDBRANCH   1  29
TORSDOF 5
