MODEL 1
REMARK VINA RESULT:      -7.3      0.000      0.000
REMARK  5 active torsions:
REMARK  status: ('A' for Active; 'I' for Inactive)
REMARK    1  A    between atoms: C_2  and  C_3 
REMARK    2  A    between atoms: C_6  and  C_7 
REMARK       I    between atoms: C_7  and  N_9 
REMARK       I    between atoms: N_9  and  C_10 
REMARK       I    between atoms: C_10  and  N_12 
REMARK    3  A    between atoms: C_14  and  C_15 
REMARK    4  A    between atoms: C_16  and  C_17 
REMARK    5  A    between atoms: C_18  and  C_19 
ROOT
ATOM      1  C   UNL d   1      27.748 -48.478  53.846  0.00  0.00    -0.036 A 
ATOM      2  C   UNL d   1      28.298 -49.630  54.348  0.00  0.00     0.012 A 
ATOM      3  C   UNL d   1      27.553 -50.783  54.562  0.00  0.00     0.019 A 
ATOM      4  C   UNL d   1      26.203 -50.856  54.286  0.00  0.00     0.042 A 
ATOM      5  C   UNL d   1      25.645 -49.667  53.773  0.00  0.00    -0.020 A 
ATOM      6  C   UNL d   1      26.378 -48.527  53.560  0.00  0.00     0.024 A 
ENDROOT
BRANCH   5   7
ATOM      7  C   UNL d   1      24.192 -49.645  53.514  0.00  0.00     0.013 C 
ATOM      8  C   UNL d   1      23.652 -49.250  52.387  0.00  0.00     0.013 C 
BRANCH   8   9
ATOM      9  C   UNL d   1      22.212 -49.229  52.166  0.00  0.00    -0.023 A 
ATOM     10  C   UNL d   1      21.594 -50.462  51.837  0.00  0.00    -0.043 A 
ATOM     11  C   UNL d   1      20.244 -50.466  51.584  0.00  0.00     0.009 A 
ATOM     12  C   UNL d   1      19.487 -49.325  51.640  0.00  0.00     0.008 A 
ATOM     13  C   UNL d   1      20.049 -48.098  51.957  0.00  0.00    -0.055 A 
ATOM     14  C   UNL d   1      19.296 -46.833  52.039  0.00  0.00     0.049 C 
ATOM     15  C   UNL d   1      21.428 -48.103  52.209  0.00  0.00    -0.045 A 
ATOM     16  C   UNL d   1      22.064 -46.752  52.430  0.00  0.00     0.049 C 
BRANCH  10  17
ATOM     17  C   UNL d   1      22.389 -51.692  51.793  0.00  0.00     0.019 A 
ATOM     18  C   UNL d   1      22.556 -52.512  50.562  0.00  0.00     0.010 A 
ATOM     19  C   UNL d   1      21.766 -53.039  51.714  0.00  0.00     0.010 A 
ENDBRANCH  10  17
ENDBRANCH   8   9
ENDBRANCH   5   7
BRANCH   4  20
ATOM     20  C   UNL d   1      25.390 -52.024  54.385  0.00  0.00     0.260 C 
ATOM     21  O   UNL d   1      24.564 -52.449  55.079  0.00  0.00    -0.267 OA
ATOM     22  N   UNL d   1      25.764 -53.107  53.063  0.00  0.00    -0.275 N 
ATOM     23  C   UNL d   1      24.806 -54.054  53.372  0.00  0.00     0.322 C 
ATOM     24  H   UNL d   1      26.432 -53.057  52.341  0.00  0.00     0.173 HD
ATOM     25  O   UNL d   1      24.029 -54.275  54.238  0.00  0.00    -0.247 OA
ATOM     26  N   UNL d   1      24.762 -55.085  52.251  0.00  0.00    -0.347 N 
ATOM     27  C   UNL d   1      23.851 -56.157  52.375  0.00  0.00     0.151 C 
ATOM     28  H   UNL d   1      25.350 -55.008  51.465  0.00  0.00     0.163 HD
ENDBRANCH   4  20
BRANCH   1  29
ATOM     29  C   UNL d   1      28.509 -47.266  53.600  0.00  0.00     0.001 C 
ATOM     30  C   UNL d   1      29.298 -47.135  52.562  0.00  0.00     0.012 C 
ENDBRANCH   1  29
TORSDOF 5
ENDMDL
MODEL 2
REMARK VINA RESULT:      -7.2      0.623      2.681
REMARK  5 active torsions:
REMARK  status: ('A' for Active; 'I' for Inactive)
REMARK    1  A    between atoms: C_2  and  C_3 
REMARK    2  A    between atoms: C_6  and  C_7 
REMARK       I    between atoms: C_7  and  N_9 
REMARK       I    between atoms: N_9  and  C_10 
REMARK       I    between atoms: C_10  and  N_12 
REMARK    3  A    between atoms: C_14  and  C_15 
REMARK    4  A    between atoms: C_16  and  C_17 
REMARK    5  A    between atoms: C_18  and  C_19 
ROOT
ATOM      1  C   UNL d   1      27.595 -48.312  53.897  0.00  0.00    -0.036 A 
ATOM      2  C   UNL d   1      28.194 -49.409  54.462  0.00  0.00     0.012 A 
ATOM      3  C   UNL d   1      27.512 -50.596  54.696  0.00  0.00     0.019 A 
ATOM      4  C   UNL d   1      26.179 -50.762  54.377  0.00  0.00     0.042 A 
ATOM      5  C   UNL d   1      25.570 -49.629  53.799  0.00  0.00    -0.020 A 
ATOM      6  C   UNL d   1      26.241 -48.455  53.567  0.00  0.00     0.024 A 
ENDROOT
BRANCH   5   7
ATOM      7  C   UNL d   1      24.128 -49.705  53.491  0.00  0.00     0.013 C 
ATOM      8  C   UNL d   1      23.610 -49.419  52.321  0.00  0.00     0.013 C 
BRANCH   8   9
ATOM      9  C   UNL d   1      22.181 -49.493  52.051  0.00  0.00    -0.023 A 
ATOM     10  C   UNL d   1      21.504 -48.265  51.838  0.00  0.00    -0.043 A 
ATOM     11  C   UNL d   1      20.148 -48.299  51.621  0.00  0.00     0.009 A 
ATOM     12  C   UNL d   1      19.441 -49.473  51.602  0.00  0.00     0.008 A 
ATOM     13  C   UNL d   1      20.061 -50.696  51.806  0.00  0.00    -0.055 A 
ATOM     14  C   UNL d   1      19.365 -51.995  51.797  0.00  0.00     0.049 C 
ATOM     15  C   UNL d   1      21.444 -50.650  52.032  0.00  0.00    -0.045 A 
ATOM     16  C   UNL d   1      22.100 -51.965  52.378  0.00  0.00     0.049 C 
BRANCH  10  17
ATOM     17  C   UNL d   1      22.253 -47.005  51.836  0.00  0.00     0.019 A 
ATOM     18  C   UNL d   1      22.265 -46.061  52.987  0.00  0.00     0.010 A 
ATOM     19  C   UNL d   1      21.584 -45.684  51.713  0.00  0.00     0.010 A 
ENDBRANCH  10  17
ENDBRANCH   8   9
ENDBRANCH   5   7
BRANCH   4  20
ATOM     20  C   UNL d   1      25.434 -51.973  54.495  0.00  0.00     0.260 C 
ATOM     21  O   UNL d   1      24.703 -52.471  55.243  0.00  0.00    -0.267 OA
ATOM     22  N   UNL d   1      25.722 -52.971  53.086  0.00  0.00    -0.275 N 
ATOM     23  C   UNL d   1      24.845 -53.979  53.438  0.00  0.00     0.322 C 
ATOM     24  H   UNL d   1      26.311 -52.853  52.307  0.00  0.00     0.173 HD
ATOM     25  O   UNL d   1      24.169 -54.280  54.364  0.00  0.00    -0.247 OA
ATOM     26  N   UNL d   1      24.734 -54.957  52.274  0.00  0.00    -0.347 N 
ATOM     27  C   UNL d   1      23.890 -56.078  52.431  0.00  0.00     0.151 C 
ATOM     28  H   UNL d   1      25.236 -54.812  51.440  0.00  0.00     0.163 HD
ENDBRANCH   4  20
BRANCH   1  29
ATOM     29  C   UNL d   1      28.289 -47.065  53.629  0.00  0.00     0.001 C 
ATOM     30  C   UNL d   1      29.395 -47.018  52.927  0.00  0.00     0.012 C 
ENDBRANCH   1  29
TORSDOF 5
ENDMDL
MODEL 3
REMARK VINA RESULT:      -7.1      2.871      6.793
REMARK  5 active torsions:
REMARK  status: ('A' for Active; 'I' for Inactive)
REMARK    1  A    between atoms: C_2  and  C_3 
REMARK    2  A    between atoms: C_6  and  C_7 
REMARK       I    between atoms: C_7  and  N_9 
REMARK       I    between atoms: N_9  and  C_10 
REMARK       I    between atoms: C_10  and  N_12 
REMARK    3  A    between atoms: C_14  and  C_15 
REMARK    4  A    between atoms: C_16  and  C_17 
REMARK    5  A    between atoms: C_18  and  C_19 
ROOT
ATOM      1  C   UNL d   1      21.122 -48.477  51.511  0.00  0.00    -0.036 A 
ATOM      2  C   UNL d   1      19.803 -48.815  51.348  0.00  0.00     0.012 A 
ATOM      3  C   UNL d   1      19.358 -50.131  51.377  0.00  0.00     0.019 A 
ATOM      4  C   UNL d   1      20.211 -51.198  51.570  0.00  0.00     0.042 A 
ATOM      5  C   UNL d   1      21.567 -50.843  51.733  0.00  0.00    -0.020 A 
ATOM      6  C   UNL d   1      22.009 -49.545  51.705  0.00  0.00     0.024 A 
ENDROOT
BRANCH   5   7
ATOM      7  C   UNL d   1      22.551 -51.934  51.878  0.00  0.00     0.013 C 
ATOM      8  C   UNL d   1      23.205 -52.191  52.984  0.00  0.00     0.013 C 
BRANCH   8   9
ATOM      9  C   UNL d   1      24.180 -53.268  53.093  0.00  0.00    -0.023 A 
ATOM     10  C   UNL d   1      25.497 -52.905  53.474  0.00  0.00    -0.043 A 
ATOM     11  C   UNL d   1      26.448 -53.894  53.546  0.00  0.00     0.009 A 
ATOM     12  C   UNL d   1      26.162 -55.204  53.266  0.00  0.00     0.008 A 
ATOM     13  C   UNL d   1      24.889 -55.604  52.890  0.00  0.00    -0.055 A 
ATOM     14  C   UNL d   1      24.510 -56.994  52.577  0.00  0.00     0.049 C 
ATOM     15  C   UNL d   1      23.926 -54.587  52.814  0.00  0.00    -0.045 A 
ATOM     16  C   UNL d   1      22.574 -54.998  52.285  0.00  0.00     0.049 C 
BRANCH  10  17
ATOM     17  C   UNL d   1      25.810 -51.510  53.795  0.00  0.00     0.019 A 
ATOM     18  C   UNL d   1      27.159 -51.057  54.231  0.00  0.00     0.010 A 
ATOM     19  C   UNL d   1      26.016 -51.044  55.191  0.00  0.00     0.010 A 
ENDBRANCH  10  17
ENDBRANCH   8   9
ENDBRANCH   5   7
BRANCH   4  20
ATOM     20  C   UNL d   1      19.826 -52.565  51.707  0.00  0.00     0.260 C 
ATOM     21  O   UNL d   1      19.725 -53.508  51.042  0.00  0.00    -0.267 OA
ATOM     22  N   UNL d   1      19.389 -52.880  53.373  0.00  0.00    -0.275 N 
ATOM     23  C   UNL d   1      19.156 -54.232  53.211  0.00  0.00     0.322 C 
ATOM     24  H   UNL d   1      19.330 -52.291  54.159  0.00  0.00     0.173 HD
ATOM     25  O   UNL d   1      19.099 -55.020  52.328  0.00  0.00    -0.247 OA
ATOM     26  N   UNL d   1      18.917 -54.853  54.582  0.00  0.00    -0.347 N 
ATOM     27  C   UNL d   1      18.646 -56.237  54.643  0.00  0.00     0.151 C 
ATOM     28  H   UNL d   1      18.951 -54.306  55.400  0.00  0.00     0.163 HD
ENDBRANCH   4  20
BRANCH   1  29
ATOM     29  C   UNL d   1      21.609 -47.109  51.500  0.00  0.00     0.001 C 
ATOM     30  C   UNL d   1      20.811 -46.083  51.660  0.00  0.00     0.012 C 
ENDBRANCH   1  29
TORSDOF 5
ENDMDL
MODEL 4
REMARK VINA RESULT:      -7.0      3.783      7.497
REMARK  5 active torsions:
REMARK  status: ('A' for Active; 'I' for Inactive)
REMARK    1  A    between atoms: C_2  and  C_3 
REMARK    2  A    between atoms: C_6  and  C_7 
REMARK       I    between atoms: C_7  and  N_9 
REMARK       I    between atoms: N_9  and  C_10 
REMARK       I    between atoms: C_10  and  N_12 
REMARK    3  A    between atoms: C_14  and  C_15 
REMARK    4  A    between atoms: C_16  and  C_17 
REMARK    5  A    between atoms: C_18  and  C_19 
ROOT
ATOM      1  C   UNL d   1      21.721 -50.313  51.463  0.00  0.00    -0.036 A 
ATOM      2  C   UNL d   1      20.359 -50.276  51.621  0.00  0.00     0.012 A 
ATOM      3  C   UNL d   1      19.608 -51.409  51.908  0.00  0.00     0.019 A 
ATOM      4  C   UNL d   1      20.176 -52.658  52.055  0.00  0.00     0.042 A 
ATOM      5  C   UNL d   1      21.577 -52.688  51.888  0.00  0.00    -0.020 A 
ATOM      6  C   UNL d   1      22.321 -51.571  51.604  0.00  0.00     0.024 A 
ENDROOT
BRANCH   5   7
ATOM      7  C   UNL d   1      22.251 -54.000  51.965  0.00  0.00     0.013 C 
ATOM      8  C   UNL d   1      23.081 -54.344  52.917  0.00  0.00     0.013 C 
BRANCH   8   9
ATOM      9  C   UNL d   1      23.741 -55.643  52.959  0.00  0.00    -0.023 A 
ATOM     10  C   UNL d   1      25.139 -55.661  52.721  0.00  0.00    -0.043 A 
ATOM     11  C   UNL d   1      25.781 -56.875  52.715  0.00  0.00     0.009 A 
ATOM     12  C   UNL d   1      25.117 -58.054  52.931  0.00  0.00     0.008 A 
ATOM     13  C   UNL d   1      23.752 -58.084  53.167  0.00  0.00    -0.055 A 
ATOM     14  C   UNL d   1      22.974 -59.313  53.408  0.00  0.00     0.049 C 
ATOM     15  C   UNL d   1      23.104 -56.840  53.166  0.00  0.00    -0.045 A 
ATOM     16  C   UNL d   1      21.601 -56.879  53.297  0.00  0.00     0.049 C 
BRANCH  10  17
ATOM     17  C   UNL d   1      25.863 -54.405  52.510  0.00  0.00     0.019 A 
ATOM     18  C   UNL d   1      27.345 -54.292  52.603  0.00  0.00     0.010 A 
ATOM     19  C   UNL d   1      26.476 -53.643  53.629  0.00  0.00     0.010 A 
ENDBRANCH  10  17
ENDBRANCH   8   9
ENDBRANCH   5   7
BRANCH   4  20
ATOM     20  C   UNL d   1      19.493 -53.849  52.442  0.00  0.00     0.260 C 
ATOM     21  O   UNL d   1      19.153 -54.848  51.964  0.00  0.00    -0.267 OA
ATOM     22  N   UNL d   1      19.060 -53.745  54.135  0.00  0.00    -0.275 N 
ATOM     23  C   UNL d   1      18.517 -55.012  54.226  0.00  0.00     0.322 C 
ATOM     24  H   UNL d   1      19.167 -53.026  54.798  0.00  0.00     0.173 HD
ATOM     25  O   UNL d   1      18.247 -55.913  53.505  0.00  0.00    -0.247 OA
ATOM     26  N   UNL d   1      18.195 -55.300  55.688  0.00  0.00    -0.347 N 
ATOM     27  C   UNL d   1      17.616 -56.549  56.004  0.00  0.00     0.151 C 
ATOM     28  H   UNL d   1      18.384 -54.636  56.390  0.00  0.00     0.163 HD
ENDBRANCH   4  20
BRANCH   1  29
ATOM     29  C   UNL d   1      22.529 -49.141  51.177  0.00  0.00     0.001 C 
ATOM     30  C   UNL d   1      22.022 -47.933  51.147  0.00  0.00     0.012 C 
ENDBRANCH   1  29
TORSDOF 5
ENDMDL
MODEL 5
REMARK VINA RESULT:      -6.8      5.641      8.260
REMARK  5 active torsions:
REMARK  status: ('A' for Active; 'I' for Inactive)
REMARK    1  A    between atoms: C_2  and  C_3 
REMARK    2  A    between atoms: C_6  and  C_7 
REMARK       I    between atoms: C_7  and  N_9 
REMARK       I    between atoms: N_9  and  C_10 
REMARK       I    between atoms: C_10  and  N_12 
REMARK    3  A    between atoms: C_14  and  C_15 
REMARK    4  A    between atoms: C_16  and  C_17 
REMARK    5  A    between atoms: C_18  and  C_19 
ROOT
ATOM      1  C   UNL d   1      25.758 -43.229  53.872  0.00  0.00    -0.036 A 
ATOM      2  C   UNL d   1      25.268 -42.077  54.432  0.00  0.00     0.012 A 
ATOM      3  C   UNL d   1      23.921 -41.901  54.725  0.00  0.00     0.019 A 
ATOM      4  C   UNL d   1      22.975 -42.873  54.474  0.00  0.00     0.042 A 
ATOM      5  C   UNL d   1      23.486 -44.053  53.895  0.00  0.00    -0.020 A 
ATOM      6  C   UNL d   1      24.815 -44.230  53.605  0.00  0.00     0.024 A 
ENDROOT
BRANCH   5   7
ATOM      7  C   UNL d   1      22.525 -45.115  53.535  0.00  0.00     0.013 C 
ATOM      8  C   UNL d   1      22.365 -45.581  52.321  0.00  0.00     0.013 C 
BRANCH   8   9
ATOM      9  C   UNL d   1      21.399 -46.622  51.995  0.00  0.00    -0.023 A 
ATOM     10  C   UNL d   1      20.052 -46.214  51.815  0.00  0.00    -0.043 A 
ATOM     11  C   UNL d   1      19.112 -47.179  51.546  0.00  0.00     0.009 A 
ATOM     12  C   UNL d   1      19.435 -48.506  51.448  0.00  0.00     0.008 A 
ATOM     13  C   UNL d   1      20.737 -48.950  51.617  0.00  0.00    -0.055 A 
ATOM     14  C   UNL d   1      21.157 -50.360  51.523  0.00  0.00     0.049 C 
ATOM     15  C   UNL d   1      21.689 -47.959  51.896  0.00  0.00    -0.045 A 
ATOM     16  C   UNL d   1      23.082 -48.451  52.205  0.00  0.00     0.049 C 
BRANCH  10  17
ATOM     17  C   UNL d   1      19.698 -44.795  51.898  0.00  0.00     0.019 A 
ATOM     18  C   UNL d   1      18.297 -44.298  51.822  0.00  0.00     0.010 A 
ATOM     19  C   UNL d   1      19.254 -44.016  50.712  0.00  0.00     0.010 A 
ENDBRANCH  10  17
ENDBRANCH   8   9
ENDBRANCH   5   7
BRANCH   4  20
ATOM     20  C   UNL d   1      21.595 -42.810  54.830  0.00  0.00     0.260 C 
ATOM     21  O   UNL d   1      20.891 -43.229  55.651  0.00  0.00    -0.267 OA
ATOM     22  N   UNL d   1      20.745 -41.797  53.684  0.00  0.00    -0.275 N 
ATOM     23  C   UNL d   1      19.516 -41.862  54.313  0.00  0.00     0.322 C 
ATOM     24  H   UNL d   1      21.042 -41.336  52.866  0.00  0.00     0.173 HD
ATOM     25  O   UNL d   1      19.015 -42.439  55.218  0.00  0.00    -0.247 OA
ATOM     26  N   UNL d   1      18.563 -40.894  53.620  0.00  0.00    -0.347 N 
ATOM     27  C   UNL d   1      17.238 -40.813  54.103  0.00  0.00     0.151 C 
ATOM     28  H   UNL d   1      18.861 -40.344  52.860  0.00  0.00     0.163 HD
ENDBRANCH   4  20
BRANCH   1  29
ATOM     29  C   UNL d   1      27.162 -43.442  53.571  0.00  0.00     0.001 C 
ATOM     30  C   UNL d   1      27.815 -42.692  52.718  0.00  0.00     0.012 C 
ENDBRANCH   1  29
TORSDOF 5
ENDMDL
MODEL 6
REMARK VINA RESULT:      -6.8      2.995      7.330
REMARK  5 active torsions:
REMARK  status: ('A' for Active; 'I' for Inactive)
REMARK    1  A    between atoms: C_2  and  C_3 
REMARK    2  A    between atoms: C_6  and  C_7 
REMARK       I    between atoms: C_7  and  N_9 
REMARK       I    between atoms: N_9  and  C_10 
REMARK       I    between atoms: C_10  and  N_12 
REMARK    3  A    between atoms: C_14  and  C_15 
REMARK    4  A    between atoms: C_16  and  C_17 
REMARK    5  A    between atoms: C_18  and  C_19 
ROOT
ATOM      1  C   UNL d   1      21.446 -50.770  51.660  0.00  0.00    -0.036 A 
ATOM      2  C   UNL d   1      20.150 -51.214  51.709  0.00  0.00     0.012 A 
ATOM      3  C   UNL d   1      19.802 -52.450  52.238  0.00  0.00     0.019 A 
ATOM      4  C   UNL d   1      20.735 -53.326  52.753  0.00  0.00     0.042 A 
ATOM      5  C   UNL d   1      22.067 -52.864  52.696  0.00  0.00    -0.020 A 
ATOM      6  C   UNL d   1      22.413 -51.643  52.174  0.00  0.00     0.024 A 
ENDROOT
BRANCH   5   7
ATOM      7  C   UNL d   1      23.131 -53.772  53.168  0.00  0.00     0.013 C 
ATOM      8  C   UNL d   1      24.185 -54.098  52.462  0.00  0.00     0.013 C 
BRANCH   8   9
ATOM      9  C   UNL d   1      25.213 -55.007  52.951  0.00  0.00    -0.023 A 
ATOM     10  C   UNL d   1      26.419 -54.423  53.417  0.00  0.00    -0.043 A 
ATOM     11  C   UNL d   1      27.422 -55.257  53.846  0.00  0.00     0.009 A 
ATOM     12  C   UNL d   1      27.290 -56.621  53.840  0.00  0.00     0.008 A 
ATOM     13  C   UNL d   1      26.131 -57.235  53.393  0.00  0.00    -0.055 A 
ATOM     14  C   UNL d   1      25.920 -58.694  53.360  0.00  0.00     0.049 C 
ATOM     15  C   UNL d   1      25.114 -56.376  52.952  0.00  0.00    -0.045 A 
ATOM     16  C   UNL d   1      23.902 -57.043  52.349  0.00  0.00     0.049 C 
BRANCH  10  17
ATOM     17  C   UNL d   1      26.563 -52.965  53.448  0.00  0.00     0.019 A 
ATOM     18  C   UNL d   1      27.727 -52.274  54.066  0.00  0.00     0.010 A 
ATOM     19  C   UNL d   1      26.376 -52.175  54.692  0.00  0.00     0.010 A 
ENDBRANCH  10  17
ENDBRANCH   8   9
ENDBRANCH   5   7
BRANCH   4  20
ATOM     20  C   UNL d   1      20.453 -54.567  53.398  0.00  0.00     0.260 C 
ATOM     21  O   UNL d   1      20.124 -54.946  54.443  0.00  0.00    -0.267 OA
ATOM     22  N   UNL d   1      20.667 -55.877  52.257  0.00  0.00    -0.275 N 
ATOM     23  C   UNL d   1      20.261 -56.884  53.110  0.00  0.00     0.322 C 
ATOM     24  H   UNL d   1      20.974 -55.890  51.321  0.00  0.00     0.173 HD
ATOM     25  O   UNL d   1      19.968 -57.012  54.251  0.00  0.00    -0.247 OA
ATOM     26  N   UNL d   1      20.166 -58.183  52.319  0.00  0.00    -0.347 N 
ATOM     27  C   UNL d   1      19.775 -59.351  53.011  0.00  0.00     0.151 C 
ATOM     28  H   UNL d   1      20.371 -58.208  51.357  0.00  0.00     0.163 HD
ENDBRANCH   4  20
BRANCH   1  29
ATOM     29  C   UNL d   1      21.834 -49.476  51.126  0.00  0.00     0.001 C 
ATOM     30  C   UNL d   1      23.002 -48.938  51.377  0.00  0.00     0.012 C 
ENDBRANCH   1  29
TORSDOF 5
ENDMDL
MODEL 7
REMARK VINA RESULT:      -6.8      3.886      8.177
REMARK  5 active torsions:
REMARK  status: ('A' for Active; 'I' for Inactive)
REMARK    1  A    between atoms: C_2  and  C_3 
REMARK    2  A    between atoms: C_6  and  C_7 
REMARK       I    between atoms: C_7  and  N_9 
REMARK       I    between atoms: N_9  and  C_10 
REMARK       I    between atoms: C_10  and  N_12 
REMARK    3  A    between atoms: C_14  and  C_15 
REMARK    4  A    between atoms: C_16  and  C_17 
REMARK    5  A    between atoms: C_18  and  C_19 
ROOT
ATOM      1  C   UNL d   1      19.920 -51.805  51.923  0.00  0.00    -0.036 A 
ATOM      2  C   UNL d   1      18.901 -50.960  51.566  0.00  0.00     0.012 A 
ATOM      3  C   UNL d   1      19.075 -49.588  51.442  0.00  0.00     0.019 A 
ATOM      4  C   UNL d   1      20.288 -48.971  51.671  0.00  0.00     0.042 A 
ATOM      5  C   UNL d   1      21.331 -49.846  52.041  0.00  0.00    -0.020 A 
ATOM      6  C   UNL d   1      21.161 -51.202  52.164  0.00  0.00     0.024 A 
ENDROOT
BRANCH   5   7
ATOM      7  C   UNL d   1      22.643 -49.253  52.366  0.00  0.00     0.013 C 
ATOM      8  C   UNL d   1      23.041 -48.972  53.582  0.00  0.00     0.013 C 
BRANCH   8   9
ATOM      9  C   UNL d   1      24.339 -48.376  53.871  0.00  0.00    -0.023 A 
ATOM     10  C   UNL d   1      24.393 -46.961  53.950  0.00  0.00    -0.043 A 
ATOM     11  C   UNL d   1      25.610 -46.368  54.181  0.00  0.00     0.009 A 
ATOM     12  C   UNL d   1      26.759 -47.097  54.336  0.00  0.00     0.008 A 
ATOM     13  C   UNL d   1      26.755 -48.482  54.266  0.00  0.00    -0.055 A 
ATOM     14  C   UNL d   1      27.951 -49.329  54.425  0.00  0.00     0.049 C 
ATOM     15  C   UNL d   1      25.508 -49.078  54.025  0.00  0.00    -0.045 A 
ATOM     16  C   UNL d   1      25.520 -50.573  53.823  0.00  0.00     0.049 C 
BRANCH  10  17
ATOM     17  C   UNL d   1      23.166 -46.172  53.806  0.00  0.00     0.019 A 
ATOM     18  C   UNL d   1      23.121 -44.694  53.985  0.00  0.00     0.010 A 
ATOM     19  C   UNL d   1      22.454 -45.591  54.974  0.00  0.00     0.010 A 
ENDBRANCH  10  17
ENDBRANCH   8   9
ENDBRANCH   5   7
BRANCH   4  20
ATOM     20  C   UNL d   1      20.574 -47.587  51.474  0.00  0.00     0.260 C 
ATOM     21  O   UNL d   1      21.275 -46.930  50.825  0.00  0.00    -0.267 OA
ATOM     22  N   UNL d   1      19.553 -46.628  52.523  0.00  0.00    -0.275 N 
ATOM     23  C   UNL d   1      19.983 -45.398  52.063  0.00  0.00     0.322 C 
ATOM     24  H   UNL d   1      18.894 -46.881  53.209  0.00  0.00     0.173 HD
ATOM     25  O   UNL d   1      20.812 -44.967  51.334  0.00  0.00    -0.247 OA
ATOM     26  N   UNL d   1      19.114 -44.313  52.688  0.00  0.00    -0.347 N 
ATOM     27  C   UNL d   1      19.394 -42.969  52.358  0.00  0.00     0.151 C 
ATOM     28  H   UNL d   1      18.379 -44.542  53.303  0.00  0.00     0.163 HD
ENDBRANCH   4  20
BRANCH   1  29
ATOM     29  C   UNL d   1      19.766 -53.244  52.045  0.00  0.00     0.001 C 
ATOM     30  C   UNL d   1      19.489 -53.823  53.187  0.00  0.00     0.012 C 
ENDBRANCH   1  29
TORSDOF 5
ENDMDL
MODEL 8
REMARK VINA RESULT:      -6.8      3.723      7.673
REMARK  5 active torsions:
REMARK  status: ('A' for Active; 'I' for Inactive)
REMARK    1  A    between atoms: C_2  and  C_3 
REMARK    2  A    between atoms: C_6  and  C_7 
REMARK       I    between atoms: C_7  and  N_9 
REMARK       I    between atoms: N_9  and  C_10 
REMARK       I    between atoms: C_10  and  N_12 
REMARK    3  A    between atoms: C_14  and  C_15 
REMARK    4  A    between atoms: C_16  and  C_17 
REMARK    5  A    between atoms: C_18  and  C_19 
ROOT
ATOM      1  C   UNL d   1      20.036 -51.893  51.868  0.00  0.00    -0.036 A 
ATOM      2  C   UNL d   1      19.017 -51.027  51.562  0.00  0.00     0.012 A 
ATOM      3  C   UNL d   1      19.205 -49.654  51.471  0.00  0.00     0.019 A 
ATOM      4  C   UNL d   1      20.431 -49.057  51.682  0.00  0.00     0.042 A 
ATOM      5  C   UNL d   1      21.472 -49.953  51.999  0.00  0.00    -0.020 A 
ATOM      6  C   UNL d   1      21.290 -51.310  52.089  0.00  0.00     0.024 A 
ENDROOT
BRANCH   5   7
ATOM      7  C   UNL d   1      22.800 -49.385  52.304  0.00  0.00     0.013 C 
ATOM      8  C   UNL d   1      23.333 -49.363  53.500  0.00  0.00     0.013 C 
BRANCH   8   9
ATOM      9  C   UNL d   1      24.642 -48.784  53.771  0.00  0.00    -0.023 A 
ATOM     10  C   UNL d   1      25.718 -49.688  53.961  0.00  0.00    -0.043 A 
ATOM     11  C   UNL d   1      26.956 -49.172  54.258  0.00  0.00     0.009 A 
ATOM     12  C   UNL d   1      27.178 -47.825  54.373  0.00  0.00     0.008 A 
ATOM     13  C   UNL d   1      26.156 -46.905  54.196  0.00  0.00    -0.055 A 
ATOM     14  C   UNL d   1      26.322 -45.444  54.302  0.00  0.00     0.049 C 
ATOM     15  C   UNL d   1      24.895 -47.441  53.898  0.00  0.00    -0.045 A 
ATOM     16  C   UNL d   1      23.757 -46.452  53.829  0.00  0.00     0.049 C 
BRANCH  10  17
ATOM     17  C   UNL d   1      25.498 -51.130  53.821  0.00  0.00     0.019 A 
ATOM     18  C   UNL d   1      25.640 -52.090  54.950  0.00  0.00     0.010 A 
ATOM     19  C   UNL d   1      26.616 -52.108  53.821  0.00  0.00     0.010 A 
ENDBRANCH  10  17
ENDBRANCH   8   9
ENDBRANCH   5   7
BRANCH   4  20
ATOM     20  C   UNL d   1      20.727 -47.672  51.514  0.00  0.00     0.260 C 
ATOM     21  O   UNL d   1      21.369 -47.000  50.821  0.00  0.00    -0.267 OA
ATOM     22  N   UNL d   1      19.852 -46.741  52.711  0.00  0.00    -0.275 N 
ATOM     23  C   UNL d   1      20.259 -45.501  52.260  0.00  0.00     0.322 C 
ATOM     24  H   UNL d   1      19.267 -47.012  53.454  0.00  0.00     0.173 HD
ATOM     25  O   UNL d   1      21.014 -45.053  51.463  0.00  0.00    -0.247 OA
ATOM     26  N   UNL d   1      19.491 -44.429  53.024  0.00  0.00    -0.347 N 
ATOM     27  C   UNL d   1      19.768 -43.077  52.724  0.00  0.00     0.151 C 
ATOM     28  H   UNL d   1      18.824 -44.671  53.706  0.00  0.00     0.163 HD
ENDBRANCH   4  20
BRANCH   1  29
ATOM     29  C   UNL d   1      19.868 -53.333  51.954  0.00  0.00     0.001 C 
ATOM     30  C   UNL d   1      20.643 -54.083  52.698  0.00  0.00     0.012 C 
ENDBRANCH   1  29
TORSDOF 5
ENDMDL
MODEL 9
REMARK VINA RESULT:      -6.6      3.872      7.544
REMARK  5 active torsions:
REMARK  status: ('A' for Active; 'I' for Inactive)
REMARK    1  A    between atoms: C_2  and  C_3 
REMARK    2  A    between atoms: C_6  and  C_7 
REMARK       I    between atoms: C_7  and  N_9 
REMARK       I    between atoms: N_9  and  C_10 
REMARK       I    between atoms: C_10  and  N_12 
REMARK    3  A    between atoms: C_14  and  C_15 
REMARK    4  A    between atoms: C_16  and  C_17 
REMARK    5  A    between atoms: C_18  and  C_19 
ROOT
ATOM      1  C   UNL d   1      19.726 -50.814  51.737  0.00  0.00    -0.036 A 
ATOM      2  C   UNL d   1      20.959 -50.551  51.197  0.00  0.00     0.012 A 
ATOM      3  C   UNL d   1      22.041 -51.409  51.350  0.00  0.00     0.019 A 
ATOM      4  C   UNL d   1      21.956 -52.591  52.057  0.00  0.00     0.042 A 
ATOM      5  C   UNL d   1      20.686 -52.853  52.611  0.00  0.00    -0.020 A 
ATOM      6  C   UNL d   1      19.616 -52.007  52.462  0.00  0.00     0.024 A 
ENDROOT
BRANCH   5   7
ATOM      7  C   UNL d   1      20.532 -54.066  53.437  0.00  0.00     0.013 C 
ATOM      8  C   UNL d   1      19.395 -54.690  53.623  0.00  0.00     0.013 C 
BRANCH   8   9
ATOM      9  C   UNL d   1      19.273 -55.880  54.455  0.00  0.00    -0.023 A 
ATOM     10  C   UNL d   1      18.489 -55.764  55.631  0.00  0.00    -0.043 A 
ATOM     11  C   UNL d   1      18.389 -56.857  56.456  0.00  0.00     0.009 A 
ATOM     12  C   UNL d   1      19.016 -58.043  56.177  0.00  0.00     0.008 A 
ATOM     13  C   UNL d   1      19.792 -58.202  55.039  0.00  0.00    -0.055 A 
ATOM     14  C   UNL d   1      20.492 -59.447  54.675  0.00  0.00     0.049 C 
ATOM     15  C   UNL d   1      19.893 -57.079  54.206  0.00  0.00    -0.045 A 
ATOM     16  C   UNL d   1      20.836 -57.209  53.035  0.00  0.00     0.049 C 
BRANCH  10  17
ATOM     17  C   UNL d   1      17.798 -54.507  55.930  0.00  0.00     0.019 A 
ATOM     18  C   UNL d   1      17.806 -53.871  57.276  0.00  0.00     0.010 A 
ATOM     19  C   UNL d   1      16.547 -54.459  56.732  0.00  0.00     0.010 A 
ENDBRANCH  10  17
ENDBRANCH   8   9
ENDBRANCH   5   7
BRANCH   4  20
ATOM     20  C   UNL d   1      22.987 -53.570  52.179  0.00  0.00     0.260 C 
ATOM     21  O   UNL d   1      23.296 -54.570  51.682  0.00  0.00    -0.267 OA
ATOM     22  N   UNL d   1      24.092 -53.093  53.450  0.00  0.00    -0.275 N 
ATOM     23  C   UNL d   1      24.975 -54.141  53.278  0.00  0.00     0.322 C 
ATOM     24  H   UNL d   1      24.085 -52.334  54.077  0.00  0.00     0.173 HD
ATOM     25  O   UNL d   1      25.049 -55.142  52.647  0.00  0.00    -0.247 OA
ATOM     26  N   UNL d   1      26.194 -53.901  54.162  0.00  0.00    -0.347 N 
ATOM     27  C   UNL d   1      27.223 -54.868  54.146  0.00  0.00     0.151 C 
ATOM     28  H   UNL d   1      26.261 -53.097  54.726  0.00  0.00     0.163 HD
ENDBRANCH   4  20
BRANCH   1  29
ATOM     29  C   UNL d   1      18.577 -49.940  51.579  0.00  0.00     0.001 C 
ATOM     30  C   UNL d   1      18.696 -48.693  51.192  0.00  0.00     0.012 C 
ENDBRANCH   1  29
TORSDOF 5
ENDMDL
