
     RDKit          3D

 28 30  0  0  0  0  0  0  0  0999 V2000
    2.5815   -5.2346   -2.7350 C   0  0  0  0  0  0  0  0  0  0  0  0
    1.6527   -4.4876   -2.1911 C   0  0  0  0  0  0  0  0  0  0  0  0
    1.9246   -3.1485   -1.7025 C   0  0  0  0  0  0  0  0  0  0  0  0
    3.1689   -2.5707   -1.7207 C   0  0  0  0  0  0  0  0  0  0  0  0
    3.4079   -1.2925   -1.2345 C   0  0  0  0  0  0  0  0  0  0  0  0
    2.4114   -0.5046   -0.6951 C   0  0  0  0  0  0  0  0  0  0  0  0
    2.5886    0.7745   -0.0892 C   0  0  0  0  0  0  0  0  0  0  0  0
    2.1778    1.3690    0.8174 O   0  0  0  0  0  0  0  0  0  0  0  0
    3.7818    1.6829   -0.9913 N   0  0  0  0  0  0  0  0  0  0  0  0
    3.7944    2.7822   -0.1540 C   0  0  0  0  0  0  0  0  0  0  0  0
    3.1966    3.1833    0.7884 O   0  0  0  0  0  0  0  0  0  0  0  0
    4.9128    3.7181   -0.5954 N   0  0  0  0  0  0  0  0  0  0  0  0
    5.0930    4.9190    0.1256 C   0  0  0  0  0  0  0  0  0  0  0  0
    1.1344   -1.1039   -0.6820 C   0  0  0  0  0  0  0  0  0  0  0  0
    0.0019   -0.3000   -0.1815 C   0  0  0  0  0  0  0  0  0  0  0  0
   -1.1609   -0.7992    0.1583 C   0  0  0  0  0  0  0  0  0  0  0  0
   -2.2635    0.0233    0.6379 C   0  0  0  0  0  0  0  0  0  0  0  0
   -3.1196   -0.5551    1.6101 C   0  0  0  0  0  0  0  0  0  0  0  0
   -2.8390   -1.8957    2.1299 C   0  0  0  0  0  0  0  0  0  0  0  0
   -3.7436   -3.0593    1.9177 C   0  0  0  0  0  0  0  0  0  0  0  0
   -3.5809   -2.4726    3.2810 C   0  0  0  0  0  0  0  0  0  0  0  0
   -4.1924    0.1810    2.0520 C   0  0  0  0  0  0  0  0  0  0  0  0
   -4.4527    1.4431    1.5868 C   0  0  0  0  0  0  0  0  0  0  0  0
   -3.6438    2.0472    0.6371 C   0  0  0  0  0  0  0  0  0  0  0  0
   -3.8631    3.3999    0.0938 C   0  0  0  0  0  0  0  0  0  0  0  0
   -2.5548    1.2862    0.1876 C   0  0  0  0  0  0  0  0  0  0  0  0
   -1.7474    1.8891   -0.9353 C   0  0  0  0  0  0  0  0  0  0  0  0
    0.8954   -2.3670   -1.1618 C   0  0  0  0  0  0  0  0  0  0  0  0
  1  2  2  0
  2  3  1  0
  3  4  2  0
  4  5  1  0
  5  6  2  0
  6  7  1  0
  7  8  2  0
  7  9  1  0
  9 10  1  0
 10 11  2  0
 10 12  1  0
 12 13  1  0
  6 14  1  0
 14 15  1  0
 15 16  2  3
 16 17  1  0
 17 18  1  0
 18 19  1  0
 19 20  1  0
 20 21  1  0
 18 22  2  0
 22 23  1  0
 23 24  2  0
 24 25  1  0
 24 26  1  0
 26 27  1  0
 14 28  2  0
 28  3  1  0
 26 17  2  0
 21 19  1  0
M  END
$$$$
